*SPEF "ieee 1481-1999"
*DESIGN "spi_to_wbs"
*DATE "06:05:56 Sunday November 02, 2025"
*VENDOR "The OpenROAD Project"
*PROGRAM "OpenROAD"
*VERSION "d423155d69de7f683a23f6916ead418a615ad4ad"
*DESIGN_FLOW "NAME_SCOPE LOCAL" "PIN_CAP NONE"
*DIVIDER /
*DELIMITER :
*BUS_DELIMITER []
*T_UNIT 1 NS
*C_UNIT 1 PF
*R_UNIT 1 OHM
*L_UNIT 1 HENRY

*NAME_MAP
*1 spi_cs_n
*2 spi_miso
*3 spi_mosi
*4 spi_sck
*7 wbs_adr_o[0]
*8 wbs_adr_o[10]
*9 wbs_adr_o[11]
*10 wbs_adr_o[12]
*11 wbs_adr_o[13]
*12 wbs_adr_o[14]
*13 wbs_adr_o[15]
*14 wbs_adr_o[16]
*15 wbs_adr_o[17]
*16 wbs_adr_o[18]
*17 wbs_adr_o[19]
*18 wbs_adr_o[1]
*19 wbs_adr_o[20]
*20 wbs_adr_o[21]
*21 wbs_adr_o[22]
*22 wbs_adr_o[23]
*23 wbs_adr_o[24]
*24 wbs_adr_o[25]
*25 wbs_adr_o[26]
*26 wbs_adr_o[27]
*27 wbs_adr_o[28]
*28 wbs_adr_o[29]
*29 wbs_adr_o[2]
*30 wbs_adr_o[30]
*31 wbs_adr_o[31]
*32 wbs_adr_o[3]
*33 wbs_adr_o[4]
*34 wbs_adr_o[5]
*35 wbs_adr_o[6]
*36 wbs_adr_o[7]
*37 wbs_adr_o[8]
*38 wbs_adr_o[9]
*39 wbs_cyc_o
*40 wbs_dat_i[0]
*41 wbs_dat_i[10]
*42 wbs_dat_i[11]
*43 wbs_dat_i[12]
*44 wbs_dat_i[13]
*45 wbs_dat_i[14]
*46 wbs_dat_i[15]
*47 wbs_dat_i[16]
*48 wbs_dat_i[17]
*49 wbs_dat_i[18]
*50 wbs_dat_i[19]
*51 wbs_dat_i[1]
*52 wbs_dat_i[20]
*53 wbs_dat_i[21]
*54 wbs_dat_i[22]
*55 wbs_dat_i[23]
*56 wbs_dat_i[24]
*57 wbs_dat_i[25]
*58 wbs_dat_i[26]
*59 wbs_dat_i[27]
*60 wbs_dat_i[28]
*61 wbs_dat_i[29]
*62 wbs_dat_i[2]
*63 wbs_dat_i[30]
*64 wbs_dat_i[31]
*65 wbs_dat_i[3]
*66 wbs_dat_i[4]
*67 wbs_dat_i[5]
*68 wbs_dat_i[6]
*69 wbs_dat_i[7]
*70 wbs_dat_i[8]
*71 wbs_dat_i[9]
*72 wbs_dat_o[0]
*73 wbs_dat_o[10]
*74 wbs_dat_o[11]
*75 wbs_dat_o[12]
*76 wbs_dat_o[13]
*77 wbs_dat_o[14]
*78 wbs_dat_o[15]
*79 wbs_dat_o[16]
*80 wbs_dat_o[17]
*81 wbs_dat_o[18]
*82 wbs_dat_o[19]
*83 wbs_dat_o[1]
*84 wbs_dat_o[20]
*85 wbs_dat_o[21]
*86 wbs_dat_o[22]
*87 wbs_dat_o[23]
*88 wbs_dat_o[24]
*89 wbs_dat_o[25]
*90 wbs_dat_o[26]
*91 wbs_dat_o[27]
*92 wbs_dat_o[28]
*93 wbs_dat_o[29]
*94 wbs_dat_o[2]
*95 wbs_dat_o[30]
*96 wbs_dat_o[31]
*97 wbs_dat_o[3]
*98 wbs_dat_o[4]
*99 wbs_dat_o[5]
*100 wbs_dat_o[6]
*101 wbs_dat_o[7]
*102 wbs_dat_o[8]
*103 wbs_dat_o[9]
*104 wbs_stb_o
*105 wbs_we_o
*106 _0000_
*107 _0001_
*108 _0002_
*109 _0003_
*110 _0004_
*111 _0005_
*112 _0006_
*113 _0007_
*114 _0008_
*115 _0009_
*116 _0010_
*117 _0011_
*118 _0012_
*119 _0013_
*120 _0014_
*121 _0015_
*122 _0016_
*123 _0017_
*124 _0018_
*125 _0019_
*126 _0020_
*127 _0021_
*128 _0022_
*129 _0023_
*130 _0024_
*131 _0025_
*132 _0026_
*133 _0027_
*134 _0028_
*135 _0029_
*136 _0030_
*137 _0031_
*138 _0032_
*139 _0033_
*140 _0034_
*141 _0035_
*142 _0036_
*143 _0037_
*144 _0038_
*145 _0039_
*146 _0040_
*147 _0041_
*148 _0042_
*149 _0043_
*150 _0044_
*151 _0045_
*152 _0046_
*153 _0047_
*154 _0048_
*155 _0049_
*156 _0050_
*157 _0051_
*158 _0052_
*159 _0053_
*160 _0054_
*161 _0055_
*162 _0056_
*163 _0057_
*164 _0058_
*165 _0059_
*166 _0060_
*167 _0061_
*168 _0062_
*169 _0063_
*170 _0064_
*171 _0065_
*172 _0066_
*173 _0067_
*174 _0068_
*175 _0069_
*176 _0070_
*177 _0071_
*178 _0072_
*179 _0073_
*180 _0074_
*181 _0075_
*182 _0076_
*183 _0077_
*184 _0078_
*185 _0079_
*186 _0080_
*187 _0081_
*188 _0082_
*189 _0083_
*190 _0084_
*191 _0085_
*192 _0086_
*193 _0087_
*194 _0088_
*195 _0089_
*196 _0090_
*197 _0091_
*198 _0092_
*199 _0093_
*200 _0094_
*201 _0095_
*202 _0096_
*203 _0097_
*204 _0098_
*205 _0099_
*206 _0100_
*207 _0101_
*208 _0102_
*209 _0103_
*210 _0104_
*211 _0105_
*212 _0106_
*213 _0107_
*214 _0108_
*215 _0109_
*216 _0110_
*217 _0111_
*218 _0112_
*219 _0113_
*220 _0114_
*221 _0115_
*222 _0116_
*223 _0117_
*224 _0118_
*225 _0119_
*226 _0120_
*227 _0121_
*228 _0122_
*229 _0123_
*230 _0124_
*231 _0125_
*232 _0126_
*233 _0127_
*234 _0128_
*235 _0129_
*236 _0130_
*237 _0131_
*238 _0132_
*239 _0133_
*240 _0134_
*241 _0135_
*242 _0136_
*243 _0137_
*244 _0138_
*245 _0139_
*246 _0140_
*247 _0141_
*248 _0142_
*249 _0143_
*250 _0144_
*251 _0145_
*252 _0146_
*253 _0147_
*254 _0148_
*255 _0149_
*256 _0150_
*257 _0151_
*258 _0152_
*259 _0153_
*260 _0154_
*261 _0155_
*262 _0156_
*263 _0157_
*264 _0158_
*265 _0159_
*266 _0160_
*267 _0161_
*268 _0162_
*269 _0163_
*270 _0164_
*271 _0165_
*272 _0166_
*273 _0167_
*274 _0168_
*275 _0169_
*276 _0170_
*277 _0171_
*278 _0172_
*279 _0173_
*280 _0174_
*281 _0175_
*282 _0176_
*283 _0177_
*284 _0178_
*285 _0179_
*286 _0180_
*287 _0181_
*288 _0182_
*289 _0183_
*290 _0184_
*291 _0185_
*292 _0186_
*293 _0187_
*294 _0188_
*295 _0189_
*296 _0190_
*297 _0191_
*298 _0192_
*299 _0193_
*300 _0194_
*301 _0195_
*302 _0196_
*303 _0197_
*304 _0198_
*305 _0199_
*306 _0200_
*307 _0201_
*308 _0202_
*309 _0203_
*310 _0204_
*311 _0205_
*312 _0206_
*313 _0207_
*314 _0208_
*315 _0209_
*316 _0210_
*317 _0211_
*318 _0212_
*319 _0213_
*320 _0214_
*321 _0215_
*322 _0216_
*323 _0217_
*324 _0218_
*325 _0219_
*326 _0220_
*327 _0221_
*328 _0222_
*329 _0223_
*330 _0224_
*331 _0225_
*332 _0226_
*333 _0227_
*334 _0228_
*335 _0229_
*336 _0230_
*337 _0231_
*338 _0232_
*339 _0233_
*340 _0234_
*341 _0235_
*342 _0236_
*343 _0237_
*344 _0238_
*345 _0239_
*346 _0240_
*347 _0241_
*348 _0242_
*349 _0243_
*350 _0244_
*351 _0245_
*352 _0246_
*353 _0247_
*354 _0248_
*355 _0249_
*356 _0250_
*357 _0251_
*358 _0252_
*359 _0253_
*360 _0254_
*361 _0255_
*362 _0256_
*363 _0257_
*364 _0258_
*365 _0259_
*366 _0260_
*367 _0261_
*368 _0262_
*369 _0263_
*370 _0264_
*371 _0265_
*372 _0266_
*373 _0267_
*374 _0268_
*375 _0269_
*376 _0270_
*377 _0271_
*378 _0272_
*379 _0273_
*380 _0274_
*381 _0275_
*382 _0276_
*383 _0277_
*384 _0278_
*385 _0279_
*386 _0280_
*387 _0281_
*388 _0282_
*389 _0283_
*390 _0284_
*391 _0285_
*392 _0286_
*393 _0287_
*394 _0288_
*395 _0289_
*396 _0290_
*397 _0291_
*398 _0292_
*399 _0293_
*400 _0294_
*401 _0295_
*402 _0296_
*403 _0297_
*404 _0298_
*405 _0299_
*406 _0300_
*407 _0301_
*408 _0302_
*409 _0303_
*410 _0304_
*411 _0305_
*412 _0306_
*413 _0307_
*414 _0308_
*415 _0309_
*416 _0310_
*417 _0311_
*418 _0312_
*419 _0313_
*420 _0314_
*421 _0315_
*422 _0316_
*423 _0317_
*424 _0318_
*425 _0319_
*426 _0320_
*427 _0321_
*428 _0322_
*429 _0323_
*430 _0324_
*431 _0325_
*432 _0326_
*433 _0327_
*434 _0328_
*435 _0329_
*436 _0330_
*437 _0331_
*438 _0332_
*439 _0333_
*440 _0334_
*441 _0335_
*442 _0336_
*443 _0337_
*444 _0338_
*445 _0339_
*446 _0340_
*447 _0341_
*448 _0342_
*449 _0343_
*450 _0344_
*451 _0345_
*452 _0346_
*453 _0347_
*454 _0348_
*455 _0349_
*456 _0350_
*457 _0351_
*458 _0352_
*459 _0353_
*460 _0354_
*461 _0355_
*462 _0356_
*463 _0357_
*464 _0358_
*465 _0359_
*466 _0360_
*467 _0361_
*468 _0362_
*469 _0363_
*470 _0364_
*471 _0365_
*472 _0366_
*473 _0367_
*474 _0368_
*475 _0369_
*476 _0370_
*477 _0371_
*478 _0372_
*479 _0373_
*480 _0374_
*481 _0375_
*482 _0376_
*483 _0377_
*484 _0378_
*485 _0379_
*486 _0380_
*487 _0381_
*488 _0382_
*489 _0383_
*490 _0384_
*491 _0385_
*492 _0386_
*493 _0387_
*494 _0388_
*495 _0389_
*496 _0390_
*497 _0391_
*498 _0392_
*499 _0393_
*500 _0394_
*501 _0395_
*502 _0396_
*503 _0397_
*504 _0398_
*505 _0399_
*506 _0400_
*507 _0401_
*508 _0402_
*509 _0403_
*510 _0404_
*511 _0405_
*512 _0406_
*513 _0407_
*514 _0408_
*515 _0409_
*516 _0410_
*517 _0411_
*518 _0412_
*519 _0413_
*520 _0414_
*521 _0415_
*522 _0416_
*523 _0417_
*524 _0418_
*525 _0419_
*526 _0420_
*527 _0421_
*528 _0422_
*529 _0423_
*530 _0424_
*531 _0425_
*532 _0426_
*533 _0427_
*534 _0428_
*535 _0429_
*536 _0430_
*537 _0431_
*538 _0432_
*539 _0433_
*540 _0434_
*541 _0435_
*542 _0436_
*543 _0437_
*544 _0438_
*545 _0439_
*546 _0440_
*547 _0441_
*548 _0442_
*549 _0443_
*550 _0444_
*551 _0445_
*552 _0446_
*553 _0447_
*554 _0448_
*555 _0449_
*556 _0450_
*557 _0451_
*558 _0452_
*559 _0453_
*560 _0454_
*561 _0455_
*562 _0456_
*563 _0457_
*564 _0458_
*565 _0459_
*566 _0460_
*567 _0461_
*568 _0462_
*569 _0463_
*570 _0464_
*571 _0465_
*572 _0466_
*573 _0467_
*574 _0468_
*575 _0469_
*576 _0470_
*577 _0471_
*578 _0472_
*579 _0473_
*580 _0474_
*581 _0475_
*582 _0476_
*583 _0477_
*584 addr\[0\]
*585 addr\[10\]
*586 addr\[11\]
*587 addr\[12\]
*588 addr\[13\]
*589 addr\[14\]
*590 addr\[15\]
*591 addr\[16\]
*592 addr\[17\]
*593 addr\[18\]
*594 addr\[19\]
*595 addr\[1\]
*596 addr\[20\]
*597 addr\[21\]
*598 addr\[22\]
*599 addr\[23\]
*600 addr\[24\]
*601 addr\[25\]
*602 addr\[26\]
*603 addr\[27\]
*604 addr\[28\]
*605 addr\[29\]
*606 addr\[2\]
*607 addr\[30\]
*608 addr\[31\]
*609 addr\[3\]
*610 addr\[4\]
*611 addr\[5\]
*612 addr\[6\]
*613 addr\[7\]
*614 addr\[8\]
*615 addr\[9\]
*616 bit_count\[0\]
*617 bit_count\[1\]
*618 bit_count\[2\]
*619 clknet_0_spi_sck
*620 clknet_4_0_0_spi_sck
*621 clknet_4_10_0_spi_sck
*622 clknet_4_11_0_spi_sck
*623 clknet_4_12_0_spi_sck
*624 clknet_4_13_0_spi_sck
*625 clknet_4_14_0_spi_sck
*626 clknet_4_15_0_spi_sck
*627 clknet_4_1_0_spi_sck
*628 clknet_4_2_0_spi_sck
*629 clknet_4_3_0_spi_sck
*630 clknet_4_4_0_spi_sck
*631 clknet_4_5_0_spi_sck
*632 clknet_4_6_0_spi_sck
*633 clknet_4_7_0_spi_sck
*634 clknet_4_8_0_spi_sck
*635 clknet_4_9_0_spi_sck
*636 command\[0\]
*637 command\[1\]
*638 command\[2\]
*639 command\[3\]
*640 command\[4\]
*641 command\[5\]
*642 command\[6\]
*643 command\[7\]
*644 data_in\[0\]
*645 data_in\[10\]
*646 data_in\[11\]
*647 data_in\[12\]
*648 data_in\[13\]
*649 data_in\[14\]
*650 data_in\[15\]
*651 data_in\[16\]
*652 data_in\[17\]
*653 data_in\[18\]
*654 data_in\[19\]
*655 data_in\[1\]
*656 data_in\[20\]
*657 data_in\[21\]
*658 data_in\[22\]
*659 data_in\[23\]
*660 data_in\[24\]
*661 data_in\[25\]
*662 data_in\[26\]
*663 data_in\[27\]
*664 data_in\[28\]
*665 data_in\[29\]
*666 data_in\[2\]
*667 data_in\[30\]
*668 data_in\[31\]
*669 data_in\[3\]
*670 data_in\[4\]
*671 data_in\[5\]
*672 data_in\[6\]
*673 data_in\[7\]
*674 data_in\[8\]
*675 data_in\[9\]
*676 data_out\[10\]
*677 data_out\[11\]
*678 data_out\[12\]
*679 data_out\[13\]
*680 data_out\[14\]
*681 data_out\[15\]
*682 data_out\[16\]
*683 data_out\[17\]
*684 data_out\[18\]
*685 data_out\[19\]
*686 data_out\[20\]
*687 data_out\[21\]
*688 data_out\[22\]
*689 data_out\[23\]
*690 data_out\[24\]
*691 data_out\[25\]
*692 data_out\[26\]
*693 data_out\[27\]
*694 data_out\[28\]
*695 data_out\[29\]
*696 data_out\[30\]
*697 data_out\[31\]
*698 data_out\[8\]
*699 data_out\[9\]
*700 net1
*701 net10
*702 net11
*703 net12
*704 net13
*705 net14
*706 net15
*707 net16
*708 net17
*709 net18
*710 net2
*711 net3
*712 net4
*713 net5
*714 net6
*715 net7
*716 net8
*717 net9
*718 shift_in\[0\]
*719 shift_in\[1\]
*720 shift_in\[2\]
*721 shift_in\[3\]
*722 shift_in\[4\]
*723 shift_in\[5\]
*724 shift_in\[6\]
*725 shift_out\[0\]
*726 shift_out\[1\]
*727 shift_out\[2\]
*728 shift_out\[3\]
*729 shift_out\[4\]
*730 shift_out\[5\]
*731 shift_out\[6\]
*732 shift_out\[7\]
*733 state\[0\]
*734 state\[1\]
*735 state\[2\]
*736 state\[3\]
*737 FILLER_0_0_109
*738 FILLER_0_0_12
*739 FILLER_0_0_130
*740 FILLER_0_0_138
*741 FILLER_0_0_141
*742 FILLER_0_0_154
*743 FILLER_0_0_158
*744 FILLER_0_0_166
*745 FILLER_0_0_169
*746 FILLER_0_0_192
*747 FILLER_0_0_197
*748 FILLER_0_0_209
*749 FILLER_0_0_22
*750 FILLER_0_0_221
*751 FILLER_0_0_3
*752 FILLER_0_0_37
*753 FILLER_0_0_49
*754 FILLER_0_0_55
*755 FILLER_0_0_57
*756 FILLER_0_0_63
*757 FILLER_0_0_85
*758 FILLER_0_0_97
*759 FILLER_0_10_116
*760 FILLER_0_10_135
*761 FILLER_0_10_139
*762 FILLER_0_10_141
*763 FILLER_0_10_169
*764 FILLER_0_10_194
*765 FILLER_0_10_223
*766 FILLER_0_10_25
*767 FILLER_0_10_3
*768 FILLER_0_10_46
*769 FILLER_0_10_7
*770 FILLER_0_10_75
*771 FILLER_0_10_81
*772 FILLER_0_11_156
*773 FILLER_0_11_204
*774 FILLER_0_11_222
*775 FILLER_0_11_27
*776 FILLER_0_11_3
*777 FILLER_0_11_31
*778 FILLER_0_11_57
*779 FILLER_0_11_61
*780 FILLER_0_11_69
*781 FILLER_0_11_94
*782 FILLER_0_12_115
*783 FILLER_0_12_137
*784 FILLER_0_12_195
*785 FILLER_0_12_206
*786 FILLER_0_12_23
*787 FILLER_0_12_3
*788 FILLER_0_12_40
*789 FILLER_0_12_49
*790 FILLER_0_12_85
*791 FILLER_0_13_110
*792 FILLER_0_13_113
*793 FILLER_0_13_121
*794 FILLER_0_13_134
*795 FILLER_0_13_147
*796 FILLER_0_13_169
*797 FILLER_0_13_180
*798 FILLER_0_13_190
*799 FILLER_0_13_21
*800 FILLER_0_13_223
*801 FILLER_0_13_3
*802 FILLER_0_13_37
*803 FILLER_0_13_48
*804 FILLER_0_13_98
*805 FILLER_0_14_100
*806 FILLER_0_14_107
*807 FILLER_0_14_111
*808 FILLER_0_14_121
*809 FILLER_0_14_134
*810 FILLER_0_14_141
*811 FILLER_0_14_148
*812 FILLER_0_14_154
*813 FILLER_0_14_164
*814 FILLER_0_14_191
*815 FILLER_0_14_195
*816 FILLER_0_14_197
*817 FILLER_0_14_223
*818 FILLER_0_14_29
*819 FILLER_0_14_3
*820 FILLER_0_14_66
*821 FILLER_0_14_80
*822 FILLER_0_14_9
*823 FILLER_0_14_91
*824 FILLER_0_15_106
*825 FILLER_0_15_130
*826 FILLER_0_15_148
*827 FILLER_0_15_169
*828 FILLER_0_15_173
*829 FILLER_0_15_223
*830 FILLER_0_15_3
*831 FILLER_0_15_32
*832 FILLER_0_15_51
*833 FILLER_0_15_55
*834 FILLER_0_15_57
*835 FILLER_0_15_93
*836 FILLER_0_16_105
*837 FILLER_0_16_124
*838 FILLER_0_16_139
*839 FILLER_0_16_150
*840 FILLER_0_16_178
*841 FILLER_0_16_188
*842 FILLER_0_16_197
*843 FILLER_0_16_201
*844 FILLER_0_16_222
*845 FILLER_0_16_24
*846 FILLER_0_16_3
*847 FILLER_0_16_62
*848 FILLER_0_16_68
*849 FILLER_0_16_85
*850 FILLER_0_16_98
*851 FILLER_0_17_101
*852 FILLER_0_17_141
*853 FILLER_0_17_149
*854 FILLER_0_17_155
*855 FILLER_0_17_169
*856 FILLER_0_17_173
*857 FILLER_0_17_191
*858 FILLER_0_17_22
*859 FILLER_0_17_220
*860 FILLER_0_17_3
*861 FILLER_0_17_47
*862 FILLER_0_17_55
*863 FILLER_0_17_57
*864 FILLER_0_17_69
*865 FILLER_0_18_12
*866 FILLER_0_18_139
*867 FILLER_0_18_141
*868 FILLER_0_18_149
*869 FILLER_0_18_167
*870 FILLER_0_18_191
*871 FILLER_0_18_195
*872 FILLER_0_18_197
*873 FILLER_0_18_201
*874 FILLER_0_18_22
*875 FILLER_0_18_220
*876 FILLER_0_18_29
*877 FILLER_0_18_3
*878 FILLER_0_18_40
*879 FILLER_0_18_63
*880 FILLER_0_18_85
*881 FILLER_0_19_105
*882 FILLER_0_19_111
*883 FILLER_0_19_113
*884 FILLER_0_19_126
*885 FILLER_0_19_139
*886 FILLER_0_19_145
*887 FILLER_0_19_15
*888 FILLER_0_19_166
*889 FILLER_0_19_172
*890 FILLER_0_19_19
*891 FILLER_0_19_196
*892 FILLER_0_19_204
*893 FILLER_0_19_215
*894 FILLER_0_19_223
*895 FILLER_0_19_23
*896 FILLER_0_19_3
*897 FILLER_0_19_31
*898 FILLER_0_19_38
*899 FILLER_0_19_44
*900 FILLER_0_19_73
*901 FILLER_0_19_88
*902 FILLER_0_19_92
*903 FILLER_0_1_111
*904 FILLER_0_1_113
*905 FILLER_0_1_134
*906 FILLER_0_1_167
*907 FILLER_0_1_169
*908 FILLER_0_1_192
*909 FILLER_0_1_211
*910 FILLER_0_1_22
*911 FILLER_0_1_223
*912 FILLER_0_1_3
*913 FILLER_0_1_45
*914 FILLER_0_1_49
*915 FILLER_0_1_74
*916 FILLER_0_1_92
*917 FILLER_0_20_107
*918 FILLER_0_20_115
*919 FILLER_0_20_138
*920 FILLER_0_20_141
*921 FILLER_0_20_153
*922 FILLER_0_20_172
*923 FILLER_0_20_189
*924 FILLER_0_20_195
*925 FILLER_0_20_200
*926 FILLER_0_20_204
*927 FILLER_0_20_222
*928 FILLER_0_20_3
*929 FILLER_0_20_39
*930 FILLER_0_20_78
*931 FILLER_0_20_83
*932 FILLER_0_20_85
*933 FILLER_0_21_113
*934 FILLER_0_21_152
*935 FILLER_0_21_165
*936 FILLER_0_21_169
*937 FILLER_0_21_222
*938 FILLER_0_21_3
*939 FILLER_0_21_64
*940 FILLER_0_21_91
*941 FILLER_0_22_100
*942 FILLER_0_22_141
*943 FILLER_0_22_147
*944 FILLER_0_22_194
*945 FILLER_0_22_223
*946 FILLER_0_22_26
*947 FILLER_0_22_3
*948 FILLER_0_22_42
*949 FILLER_0_22_52
*950 FILLER_0_22_59
*951 FILLER_0_22_63
*952 FILLER_0_22_67
*953 FILLER_0_23_122
*954 FILLER_0_23_135
*955 FILLER_0_23_147
*956 FILLER_0_23_15
*957 FILLER_0_23_153
*958 FILLER_0_23_157
*959 FILLER_0_23_169
*960 FILLER_0_23_192
*961 FILLER_0_23_198
*962 FILLER_0_23_202
*963 FILLER_0_23_3
*964 FILLER_0_23_31
*965 FILLER_0_23_43
*966 FILLER_0_23_55
*967 FILLER_0_23_57
*968 FILLER_0_23_69
*969 FILLER_0_23_75
*970 FILLER_0_23_97
*971 FILLER_0_24_115
*972 FILLER_0_24_127
*973 FILLER_0_24_139
*974 FILLER_0_24_141
*975 FILLER_0_24_153
*976 FILLER_0_24_164
*977 FILLER_0_24_176
*978 FILLER_0_24_183
*979 FILLER_0_24_195
*980 FILLER_0_24_197
*981 FILLER_0_24_209
*982 FILLER_0_24_221
*983 FILLER_0_24_3
*984 FILLER_0_24_38
*985 FILLER_0_24_46
*986 FILLER_0_24_56
*987 FILLER_0_24_64
*988 FILLER_0_24_70
*989 FILLER_0_24_82
*990 FILLER_0_24_88
*991 FILLER_0_25_102
*992 FILLER_0_25_122
*993 FILLER_0_25_154
*994 FILLER_0_25_195
*995 FILLER_0_25_3
*996 FILLER_0_25_55
*997 FILLER_0_25_83
*998 FILLER_0_26_118
*999 FILLER_0_26_158
*1000 FILLER_0_26_194
*1001 FILLER_0_26_223
*1002 FILLER_0_26_23
*1003 FILLER_0_26_38
*1004 FILLER_0_26_44
*1005 FILLER_0_26_79
*1006 FILLER_0_26_83
*1007 FILLER_0_26_91
*1008 FILLER_0_27_122
*1009 FILLER_0_27_149
*1010 FILLER_0_27_167
*1011 FILLER_0_27_178
*1012 FILLER_0_27_183
*1013 FILLER_0_27_3
*1014 FILLER_0_27_32
*1015 FILLER_0_27_36
*1016 FILLER_0_27_54
*1017 FILLER_0_27_60
*1018 FILLER_0_27_73
*1019 FILLER_0_27_86
*1020 FILLER_0_27_94
*1021 FILLER_0_28_101
*1022 FILLER_0_28_114
*1023 FILLER_0_28_120
*1024 FILLER_0_28_139
*1025 FILLER_0_28_177
*1026 FILLER_0_28_197
*1027 FILLER_0_28_3
*1028 FILLER_0_28_38
*1029 FILLER_0_28_68
*1030 FILLER_0_28_7
*1031 FILLER_0_28_72
*1032 FILLER_0_28_82
*1033 FILLER_0_28_85
*1034 FILLER_0_28_91
*1035 FILLER_0_29_106
*1036 FILLER_0_29_122
*1037 FILLER_0_29_130
*1038 FILLER_0_29_153
*1039 FILLER_0_29_165
*1040 FILLER_0_29_178
*1041 FILLER_0_29_182
*1042 FILLER_0_29_210
*1043 FILLER_0_29_3
*1044 FILLER_0_29_33
*1045 FILLER_0_29_51
*1046 FILLER_0_29_74
*1047 FILLER_0_2_136
*1048 FILLER_0_2_223
*1049 FILLER_0_2_3
*1050 FILLER_0_2_46
*1051 FILLER_0_2_73
*1052 FILLER_0_2_94
*1053 FILLER_0_30_105
*1054 FILLER_0_30_115
*1055 FILLER_0_30_121
*1056 FILLER_0_30_139
*1057 FILLER_0_30_184
*1058 FILLER_0_30_194
*1059 FILLER_0_30_222
*1060 FILLER_0_30_55
*1061 FILLER_0_30_76
*1062 FILLER_0_31_111
*1063 FILLER_0_31_130
*1064 FILLER_0_31_166
*1065 FILLER_0_31_223
*1066 FILLER_0_31_3
*1067 FILLER_0_31_41
*1068 FILLER_0_31_9
*1069 FILLER_0_31_92
*1070 FILLER_0_32_108
*1071 FILLER_0_32_113
*1072 FILLER_0_32_153
*1073 FILLER_0_32_161
*1074 FILLER_0_32_187
*1075 FILLER_0_32_197
*1076 FILLER_0_32_27
*1077 FILLER_0_32_3
*1078 FILLER_0_32_32
*1079 FILLER_0_32_60
*1080 FILLER_0_32_75
*1081 FILLER_0_32_83
*1082 FILLER_0_32_94
*1083 FILLER_0_33_113
*1084 FILLER_0_33_126
*1085 FILLER_0_33_136
*1086 FILLER_0_33_149
*1087 FILLER_0_33_157
*1088 FILLER_0_33_177
*1089 FILLER_0_33_181
*1090 FILLER_0_33_185
*1091 FILLER_0_33_20
*1092 FILLER_0_33_222
*1093 FILLER_0_33_31
*1094 FILLER_0_33_57
*1095 FILLER_0_33_85
*1096 FILLER_0_33_96
*1097 FILLER_0_34_119
*1098 FILLER_0_34_153
*1099 FILLER_0_34_171
*1100 FILLER_0_34_192
*1101 FILLER_0_34_214
*1102 FILLER_0_34_3
*1103 FILLER_0_34_75
*1104 FILLER_0_34_83
*1105 FILLER_0_34_88
*1106 FILLER_0_34_9
*1107 FILLER_0_35_122
*1108 FILLER_0_35_166
*1109 FILLER_0_35_220
*1110 FILLER_0_35_23
*1111 FILLER_0_35_34
*1112 FILLER_0_35_52
*1113 FILLER_0_35_63
*1114 FILLER_0_35_73
*1115 FILLER_0_35_94
*1116 FILLER_0_36_122
*1117 FILLER_0_36_162
*1118 FILLER_0_36_192
*1119 FILLER_0_36_197
*1120 FILLER_0_36_220
*1121 FILLER_0_36_29
*1122 FILLER_0_36_3
*1123 FILLER_0_36_7
*1124 FILLER_0_36_88
*1125 FILLER_0_37_106
*1126 FILLER_0_37_11
*1127 FILLER_0_37_113
*1128 FILLER_0_37_117
*1129 FILLER_0_37_132
*1130 FILLER_0_37_141
*1131 FILLER_0_37_153
*1132 FILLER_0_37_159
*1133 FILLER_0_37_185
*1134 FILLER_0_37_205
*1135 FILLER_0_37_21
*1136 FILLER_0_37_222
*1137 FILLER_0_37_27
*1138 FILLER_0_37_29
*1139 FILLER_0_37_3
*1140 FILLER_0_37_37
*1141 FILLER_0_37_51
*1142 FILLER_0_37_55
*1143 FILLER_0_37_57
*1144 FILLER_0_37_67
*1145 FILLER_0_37_94
*1146 FILLER_0_3_113
*1147 FILLER_0_3_136
*1148 FILLER_0_3_169
*1149 FILLER_0_3_173
*1150 FILLER_0_3_192
*1151 FILLER_0_3_209
*1152 FILLER_0_3_221
*1153 FILLER_0_3_24
*1154 FILLER_0_3_30
*1155 FILLER_0_3_49
*1156 FILLER_0_3_55
*1157 FILLER_0_3_88
*1158 FILLER_0_4_102
*1159 FILLER_0_4_110
*1160 FILLER_0_4_136
*1161 FILLER_0_4_141
*1162 FILLER_0_4_153
*1163 FILLER_0_4_185
*1164 FILLER_0_4_193
*1165 FILLER_0_4_197
*1166 FILLER_0_4_205
*1167 FILLER_0_4_3
*1168 FILLER_0_4_63
*1169 FILLER_0_4_7
*1170 FILLER_0_4_73
*1171 FILLER_0_5_122
*1172 FILLER_0_5_159
*1173 FILLER_0_5_195
*1174 FILLER_0_5_199
*1175 FILLER_0_5_223
*1176 FILLER_0_5_26
*1177 FILLER_0_5_3
*1178 FILLER_0_5_30
*1179 FILLER_0_5_40
*1180 FILLER_0_5_48
*1181 FILLER_0_5_52
*1182 FILLER_0_5_66
*1183 FILLER_0_5_72
*1184 FILLER_0_5_89
*1185 FILLER_0_6_134
*1186 FILLER_0_6_167
*1187 FILLER_0_6_171
*1188 FILLER_0_6_192
*1189 FILLER_0_6_21
*1190 FILLER_0_6_27
*1191 FILLER_0_6_29
*1192 FILLER_0_6_3
*1193 FILLER_0_6_62
*1194 FILLER_0_6_81
*1195 FILLER_0_6_96
*1196 FILLER_0_7_110
*1197 FILLER_0_7_133
*1198 FILLER_0_7_145
*1199 FILLER_0_7_158
*1200 FILLER_0_7_166
*1201 FILLER_0_7_169
*1202 FILLER_0_7_219
*1203 FILLER_0_7_223
*1204 FILLER_0_7_3
*1205 FILLER_0_7_35
*1206 FILLER_0_7_74
*1207 FILLER_0_7_99
*1208 FILLER_0_8_103
*1209 FILLER_0_8_115
*1210 FILLER_0_8_119
*1211 FILLER_0_8_132
*1212 FILLER_0_8_141
*1213 FILLER_0_8_145
*1214 FILLER_0_8_163
*1215 FILLER_0_8_171
*1216 FILLER_0_8_175
*1217 FILLER_0_8_197
*1218 FILLER_0_8_3
*1219 FILLER_0_9_11
*1220 FILLER_0_9_111
*1221 FILLER_0_9_131
*1222 FILLER_0_9_139
*1223 FILLER_0_9_15
*1224 FILLER_0_9_166
*1225 FILLER_0_9_219
*1226 FILLER_0_9_223
*1227 FILLER_0_9_3
*1228 FILLER_0_9_37
*1229 FILLER_0_9_48
*1230 FILLER_0_9_57
*1231 FILLER_0_9_65
*1232 FILLER_0_9_74
*1233 FILLER_0_9_83
*1234 FILLER_0_9_99
*1235 PHY_EDGE_ROW_0_Left_38
*1236 PHY_EDGE_ROW_0_Right_0
*1237 PHY_EDGE_ROW_10_Left_48
*1238 PHY_EDGE_ROW_10_Right_10
*1239 PHY_EDGE_ROW_11_Left_49
*1240 PHY_EDGE_ROW_11_Right_11
*1241 PHY_EDGE_ROW_12_Left_50
*1242 PHY_EDGE_ROW_12_Right_12
*1243 PHY_EDGE_ROW_13_Left_51
*1244 PHY_EDGE_ROW_13_Right_13
*1245 PHY_EDGE_ROW_14_Left_52
*1246 PHY_EDGE_ROW_14_Right_14
*1247 PHY_EDGE_ROW_15_Left_53
*1248 PHY_EDGE_ROW_15_Right_15
*1249 PHY_EDGE_ROW_16_Left_54
*1250 PHY_EDGE_ROW_16_Right_16
*1251 PHY_EDGE_ROW_17_Left_55
*1252 PHY_EDGE_ROW_17_Right_17
*1253 PHY_EDGE_ROW_18_Left_56
*1254 PHY_EDGE_ROW_18_Right_18
*1255 PHY_EDGE_ROW_19_Left_57
*1256 PHY_EDGE_ROW_19_Right_19
*1257 PHY_EDGE_ROW_1_Left_39
*1258 PHY_EDGE_ROW_1_Right_1
*1259 PHY_EDGE_ROW_20_Left_58
*1260 PHY_EDGE_ROW_20_Right_20
*1261 PHY_EDGE_ROW_21_Left_59
*1262 PHY_EDGE_ROW_21_Right_21
*1263 PHY_EDGE_ROW_22_Left_60
*1264 PHY_EDGE_ROW_22_Right_22
*1265 PHY_EDGE_ROW_23_Left_61
*1266 PHY_EDGE_ROW_23_Right_23
*1267 PHY_EDGE_ROW_24_Left_62
*1268 PHY_EDGE_ROW_24_Right_24
*1269 PHY_EDGE_ROW_25_Left_63
*1270 PHY_EDGE_ROW_25_Right_25
*1271 PHY_EDGE_ROW_26_Left_64
*1272 PHY_EDGE_ROW_26_Right_26
*1273 PHY_EDGE_ROW_27_Left_65
*1274 PHY_EDGE_ROW_27_Right_27
*1275 PHY_EDGE_ROW_28_Left_66
*1276 PHY_EDGE_ROW_28_Right_28
*1277 PHY_EDGE_ROW_29_Left_67
*1278 PHY_EDGE_ROW_29_Right_29
*1279 PHY_EDGE_ROW_2_Left_40
*1280 PHY_EDGE_ROW_2_Right_2
*1281 PHY_EDGE_ROW_30_Left_68
*1282 PHY_EDGE_ROW_30_Right_30
*1283 PHY_EDGE_ROW_31_Left_69
*1284 PHY_EDGE_ROW_31_Right_31
*1285 PHY_EDGE_ROW_32_Left_70
*1286 PHY_EDGE_ROW_32_Right_32
*1287 PHY_EDGE_ROW_33_Left_71
*1288 PHY_EDGE_ROW_33_Right_33
*1289 PHY_EDGE_ROW_34_Left_72
*1290 PHY_EDGE_ROW_34_Right_34
*1291 PHY_EDGE_ROW_35_Left_73
*1292 PHY_EDGE_ROW_35_Right_35
*1293 PHY_EDGE_ROW_36_Left_74
*1294 PHY_EDGE_ROW_36_Right_36
*1295 PHY_EDGE_ROW_37_Left_75
*1296 PHY_EDGE_ROW_37_Right_37
*1297 PHY_EDGE_ROW_3_Left_41
*1298 PHY_EDGE_ROW_3_Right_3
*1299 PHY_EDGE_ROW_4_Left_42
*1300 PHY_EDGE_ROW_4_Right_4
*1301 PHY_EDGE_ROW_5_Left_43
*1302 PHY_EDGE_ROW_5_Right_5
*1303 PHY_EDGE_ROW_6_Left_44
*1304 PHY_EDGE_ROW_6_Right_6
*1305 PHY_EDGE_ROW_7_Left_45
*1306 PHY_EDGE_ROW_7_Right_7
*1307 PHY_EDGE_ROW_8_Left_46
*1308 PHY_EDGE_ROW_8_Right_8
*1309 PHY_EDGE_ROW_9_Left_47
*1310 PHY_EDGE_ROW_9_Right_9
*1311 TAP_TAPCELL_ROW_0_76
*1312 TAP_TAPCELL_ROW_0_77
*1313 TAP_TAPCELL_ROW_0_78
*1314 TAP_TAPCELL_ROW_0_79
*1315 TAP_TAPCELL_ROW_0_80
*1316 TAP_TAPCELL_ROW_0_81
*1317 TAP_TAPCELL_ROW_0_82
*1318 TAP_TAPCELL_ROW_10_114
*1319 TAP_TAPCELL_ROW_10_115
*1320 TAP_TAPCELL_ROW_10_116
*1321 TAP_TAPCELL_ROW_10_117
*1322 TAP_TAPCELL_ROW_11_118
*1323 TAP_TAPCELL_ROW_11_119
*1324 TAP_TAPCELL_ROW_11_120
*1325 TAP_TAPCELL_ROW_12_121
*1326 TAP_TAPCELL_ROW_12_122
*1327 TAP_TAPCELL_ROW_12_123
*1328 TAP_TAPCELL_ROW_12_124
*1329 TAP_TAPCELL_ROW_13_125
*1330 TAP_TAPCELL_ROW_13_126
*1331 TAP_TAPCELL_ROW_13_127
*1332 TAP_TAPCELL_ROW_14_128
*1333 TAP_TAPCELL_ROW_14_129
*1334 TAP_TAPCELL_ROW_14_130
*1335 TAP_TAPCELL_ROW_14_131
*1336 TAP_TAPCELL_ROW_15_132
*1337 TAP_TAPCELL_ROW_15_133
*1338 TAP_TAPCELL_ROW_15_134
*1339 TAP_TAPCELL_ROW_16_135
*1340 TAP_TAPCELL_ROW_16_136
*1341 TAP_TAPCELL_ROW_16_137
*1342 TAP_TAPCELL_ROW_16_138
*1343 TAP_TAPCELL_ROW_17_139
*1344 TAP_TAPCELL_ROW_17_140
*1345 TAP_TAPCELL_ROW_17_141
*1346 TAP_TAPCELL_ROW_18_142
*1347 TAP_TAPCELL_ROW_18_143
*1348 TAP_TAPCELL_ROW_18_144
*1349 TAP_TAPCELL_ROW_18_145
*1350 TAP_TAPCELL_ROW_19_146
*1351 TAP_TAPCELL_ROW_19_147
*1352 TAP_TAPCELL_ROW_19_148
*1353 TAP_TAPCELL_ROW_1_83
*1354 TAP_TAPCELL_ROW_1_84
*1355 TAP_TAPCELL_ROW_1_85
*1356 TAP_TAPCELL_ROW_20_149
*1357 TAP_TAPCELL_ROW_20_150
*1358 TAP_TAPCELL_ROW_20_151
*1359 TAP_TAPCELL_ROW_20_152
*1360 TAP_TAPCELL_ROW_21_153
*1361 TAP_TAPCELL_ROW_21_154
*1362 TAP_TAPCELL_ROW_21_155
*1363 TAP_TAPCELL_ROW_22_156
*1364 TAP_TAPCELL_ROW_22_157
*1365 TAP_TAPCELL_ROW_22_158
*1366 TAP_TAPCELL_ROW_22_159
*1367 TAP_TAPCELL_ROW_23_160
*1368 TAP_TAPCELL_ROW_23_161
*1369 TAP_TAPCELL_ROW_23_162
*1370 TAP_TAPCELL_ROW_24_163
*1371 TAP_TAPCELL_ROW_24_164
*1372 TAP_TAPCELL_ROW_24_165
*1373 TAP_TAPCELL_ROW_24_166
*1374 TAP_TAPCELL_ROW_25_167
*1375 TAP_TAPCELL_ROW_25_168
*1376 TAP_TAPCELL_ROW_25_169
*1377 TAP_TAPCELL_ROW_26_170
*1378 TAP_TAPCELL_ROW_26_171
*1379 TAP_TAPCELL_ROW_26_172
*1380 TAP_TAPCELL_ROW_26_173
*1381 TAP_TAPCELL_ROW_27_174
*1382 TAP_TAPCELL_ROW_27_175
*1383 TAP_TAPCELL_ROW_27_176
*1384 TAP_TAPCELL_ROW_28_177
*1385 TAP_TAPCELL_ROW_28_178
*1386 TAP_TAPCELL_ROW_28_179
*1387 TAP_TAPCELL_ROW_28_180
*1388 TAP_TAPCELL_ROW_29_181
*1389 TAP_TAPCELL_ROW_29_182
*1390 TAP_TAPCELL_ROW_29_183
*1391 TAP_TAPCELL_ROW_2_86
*1392 TAP_TAPCELL_ROW_2_87
*1393 TAP_TAPCELL_ROW_2_88
*1394 TAP_TAPCELL_ROW_2_89
*1395 TAP_TAPCELL_ROW_30_184
*1396 TAP_TAPCELL_ROW_30_185
*1397 TAP_TAPCELL_ROW_30_186
*1398 TAP_TAPCELL_ROW_30_187
*1399 TAP_TAPCELL_ROW_31_188
*1400 TAP_TAPCELL_ROW_31_189
*1401 TAP_TAPCELL_ROW_31_190
*1402 TAP_TAPCELL_ROW_32_191
*1403 TAP_TAPCELL_ROW_32_192
*1404 TAP_TAPCELL_ROW_32_193
*1405 TAP_TAPCELL_ROW_32_194
*1406 TAP_TAPCELL_ROW_33_195
*1407 TAP_TAPCELL_ROW_33_196
*1408 TAP_TAPCELL_ROW_33_197
*1409 TAP_TAPCELL_ROW_34_198
*1410 TAP_TAPCELL_ROW_34_199
*1411 TAP_TAPCELL_ROW_34_200
*1412 TAP_TAPCELL_ROW_34_201
*1413 TAP_TAPCELL_ROW_35_202
*1414 TAP_TAPCELL_ROW_35_203
*1415 TAP_TAPCELL_ROW_35_204
*1416 TAP_TAPCELL_ROW_36_205
*1417 TAP_TAPCELL_ROW_36_206
*1418 TAP_TAPCELL_ROW_36_207
*1419 TAP_TAPCELL_ROW_36_208
*1420 TAP_TAPCELL_ROW_37_209
*1421 TAP_TAPCELL_ROW_37_210
*1422 TAP_TAPCELL_ROW_37_211
*1423 TAP_TAPCELL_ROW_37_212
*1424 TAP_TAPCELL_ROW_37_213
*1425 TAP_TAPCELL_ROW_37_214
*1426 TAP_TAPCELL_ROW_37_215
*1427 TAP_TAPCELL_ROW_3_90
*1428 TAP_TAPCELL_ROW_3_91
*1429 TAP_TAPCELL_ROW_3_92
*1430 TAP_TAPCELL_ROW_4_93
*1431 TAP_TAPCELL_ROW_4_94
*1432 TAP_TAPCELL_ROW_4_95
*1433 TAP_TAPCELL_ROW_4_96
*1434 TAP_TAPCELL_ROW_5_97
*1435 TAP_TAPCELL_ROW_5_98
*1436 TAP_TAPCELL_ROW_5_99
*1437 TAP_TAPCELL_ROW_6_100
*1438 TAP_TAPCELL_ROW_6_101
*1439 TAP_TAPCELL_ROW_6_102
*1440 TAP_TAPCELL_ROW_6_103
*1441 TAP_TAPCELL_ROW_7_104
*1442 TAP_TAPCELL_ROW_7_105
*1443 TAP_TAPCELL_ROW_7_106
*1444 TAP_TAPCELL_ROW_8_107
*1445 TAP_TAPCELL_ROW_8_108
*1446 TAP_TAPCELL_ROW_8_109
*1447 TAP_TAPCELL_ROW_8_110
*1448 TAP_TAPCELL_ROW_9_111
*1449 TAP_TAPCELL_ROW_9_112
*1450 TAP_TAPCELL_ROW_9_113
*1451 _0478_
*1452 _0479_
*1453 _0480_
*1454 _0481_
*1455 _0482_
*1456 _0483_
*1457 _0484_
*1458 _0485_
*1459 _0486_
*1460 _0487_
*1461 _0488_
*1462 _0489_
*1463 _0490_
*1464 _0491_
*1465 _0492_
*1466 _0493_
*1467 _0494_
*1468 _0495_
*1469 _0496_
*1470 _0497_
*1471 _0498_
*1472 _0499_
*1473 _0500_
*1474 _0501_
*1475 _0502_
*1476 _0503_
*1477 _0504_
*1478 _0505_
*1479 _0506_
*1480 _0507_
*1481 _0508_
*1482 _0509_
*1483 _0510_
*1484 _0511_
*1485 _0512_
*1486 _0513_
*1487 _0514_
*1488 _0515_
*1489 _0516_
*1490 _0517_
*1491 _0518_
*1492 _0519_
*1493 _0520_
*1494 _0521_
*1495 _0522_
*1496 _0523_
*1497 _0524_
*1498 _0525_
*1499 _0526_
*1500 _0527_
*1501 _0528_
*1502 _0529_
*1503 _0530_
*1504 _0531_
*1505 _0532_
*1506 _0533_
*1507 _0534_
*1508 _0535_
*1509 _0536_
*1510 _0537_
*1511 _0538_
*1512 _0539_
*1513 _0540_
*1514 _0541_
*1515 _0542_
*1516 _0543_
*1517 _0544_
*1518 _0545_
*1519 _0546_
*1520 _0547_
*1521 _0548_
*1522 _0549_
*1523 _0550_
*1524 _0551_
*1525 _0552_
*1526 _0553_
*1527 _0554_
*1528 _0555_
*1529 _0556_
*1530 _0557_
*1531 _0558_
*1532 _0559_
*1533 _0560_
*1534 _0561_
*1535 _0562_
*1536 _0563_
*1537 _0564_
*1538 _0565_
*1539 _0566_
*1540 _0567_
*1541 _0568_
*1542 _0569_
*1543 _0570_
*1544 _0571_
*1545 _0572_
*1546 _0573_
*1547 _0574_
*1548 _0575_
*1549 _0576_
*1550 _0577_
*1551 _0578_
*1552 _0579_
*1553 _0580_
*1554 _0581_
*1555 _0582_
*1556 _0583_
*1557 _0584_
*1558 _0585_
*1559 _0586_
*1560 _0587_
*1561 _0588_
*1562 _0589_
*1563 _0590_
*1564 _0591_
*1565 _0592_
*1566 _0593_
*1567 _0594_
*1568 _0595_
*1569 _0596_
*1570 _0597_
*1571 _0598_
*1572 _0599_
*1573 _0600_
*1574 _0601_
*1575 _0602_
*1576 _0603_
*1577 _0604_
*1578 _0605_
*1579 _0606_
*1580 _0607_
*1581 _0608_
*1582 _0609_
*1583 _0610_
*1584 _0611_
*1585 _0612_
*1586 _0613_
*1587 _0614_
*1588 _0615_
*1589 _0616_
*1590 _0617_
*1591 _0618_
*1592 _0619_
*1593 _0620_
*1594 _0621_
*1595 _0622_
*1596 _0623_
*1597 _0624_
*1598 _0625_
*1599 _0626_
*1600 _0627_
*1601 _0628_
*1602 _0629_
*1603 _0630_
*1604 _0631_
*1605 _0632_
*1606 _0633_
*1607 _0634_
*1608 _0635_
*1609 _0636_
*1610 _0637_
*1611 _0638_
*1612 _0639_
*1613 _0640_
*1614 _0641_
*1615 _0642_
*1616 _0643_
*1617 _0644_
*1618 _0645_
*1619 _0646_
*1620 _0647_
*1621 _0648_
*1622 _0649_
*1623 _0650_
*1624 _0651_
*1625 _0652_
*1626 _0653_
*1627 _0654_
*1628 _0655_
*1629 _0656_
*1630 _0657_
*1631 _0658_
*1632 _0659_
*1633 _0660_
*1634 _0661_
*1635 _0662_
*1636 _0663_
*1637 _0664_
*1638 _0665_
*1639 _0666_
*1640 _0667_
*1641 _0668_
*1642 _0669_
*1643 _0670_
*1644 _0671_
*1645 _0672_
*1646 _0673_
*1647 _0674_
*1648 _0675_
*1649 _0676_
*1650 _0677_
*1651 _0678_
*1652 _0679_
*1653 _0680_
*1654 _0681_
*1655 _0682_
*1656 _0683_
*1657 _0684_
*1658 _0685_
*1659 _0686_
*1660 _0687_
*1661 _0688_
*1662 _0689_
*1663 _0690_