* NGSPICE file created from spi_to_wbs.ext - technology: sky130A

* Black-box entry subcircuit for sky130_fd_sc_hd__tapvpwrvgnd_1 abstract view
.subckt sky130_fd_sc_hd__tapvpwrvgnd_1 VGND VPWR
.ends

* Black-box entry subcircuit for sky130_fd_sc_hd__fill_1 abstract view
.subckt sky130_fd_sc_hd__fill_1 VGND VNB VPB VPWR
.ends

* Black-box entry subcircuit for sky130_fd_sc_hd__decap_3 abstract view
.subckt sky130_fd_sc_hd__decap_3 VGND VNB VPB VPWR
.ends

* Black-box entry subcircuit for sky130_fd_sc_hd__dfxtp_2 abstract view
.subckt sky130_fd_sc_hd__dfxtp_2 CLK D VGND VNB VPB VPWR Q
.ends

* Black-box entry subcircuit for sky130_fd_sc_hd__fill_2 abstract view
.subckt sky130_fd_sc_hd__fill_2 VGND VNB VPB VPWR
.ends

* Black-box entry subcircuit for sky130_fd_sc_hd__buf_1 abstract view
.subckt sky130_fd_sc_hd__buf_1 A VGND VNB VPB VPWR X
.ends

* Black-box entry subcircuit for sky130_fd_sc_hd__mux2_2 abstract view
.subckt sky130_fd_sc_hd__mux2_2 A0 A1 S VGND VNB VPB VPWR X
.ends

* Black-box entry subcircuit for sky130_fd_sc_hd__decap_6 abstract view
.subckt sky130_fd_sc_hd__decap_6 VGND VNB VPB VPWR
.ends

* Black-box entry subcircuit for sky130_fd_sc_hd__decap_4 abstract view
.subckt sky130_fd_sc_hd__decap_4 VGND VNB VPB VPWR
.ends

* Black-box entry subcircuit for sky130_ef_sc_hd__decap_12 abstract view
.subckt sky130_ef_sc_hd__decap_12 VPWR VGND VPB VNB
.ends

* Black-box entry subcircuit for sky130_fd_sc_hd__or4_2 abstract view
.subckt sky130_fd_sc_hd__or4_2 A B C D VGND VNB VPB VPWR X
.ends

* Black-box entry subcircuit for sky130_fd_sc_hd__decap_8 abstract view
.subckt sky130_fd_sc_hd__decap_8 VGND VNB VPB VPWR
.ends

* Black-box entry subcircuit for sky130_fd_sc_hd__and4bb_2 abstract view
.subckt sky130_fd_sc_hd__and4bb_2 A_N B_N C D VGND VNB VPB VPWR X
.ends

* Black-box entry subcircuit for sky130_fd_sc_hd__a22o_2 abstract view
.subckt sky130_fd_sc_hd__a22o_2 A1 A2 B1 B2 VGND VNB VPB VPWR X
.ends

* Black-box entry subcircuit for sky130_fd_sc_hd__clkbuf_4 abstract view
.subckt sky130_fd_sc_hd__clkbuf_4 A VGND VNB VPB VPWR X
.ends

* Black-box entry subcircuit for sky130_fd_sc_hd__and3_2 abstract view
.subckt sky130_fd_sc_hd__and3_2 A B C VGND VNB VPB VPWR X
.ends

* Black-box entry subcircuit for sky130_fd_sc_hd__clkbuf_8 abstract view
.subckt sky130_fd_sc_hd__clkbuf_8 A VGND VNB VPB VPWR X
.ends

* Black-box entry subcircuit for sky130_fd_sc_hd__dlygate4sd3_1 abstract view
.subckt sky130_fd_sc_hd__dlygate4sd3_1 A VGND VNB VPB VPWR X
.ends

* Black-box entry subcircuit for sky130_fd_sc_hd__a21oi_2 abstract view
.subckt sky130_fd_sc_hd__a21oi_2 A1 A2 B1 VGND VNB VPB VPWR Y
.ends

* Black-box entry subcircuit for sky130_fd_sc_hd__dfrtp_2 abstract view
.subckt sky130_fd_sc_hd__dfrtp_2 CLK D RESET_B VGND VNB VPB VPWR Q
.ends

* Black-box entry subcircuit for sky130_fd_sc_hd__a21o_2 abstract view
.subckt sky130_fd_sc_hd__a21o_2 A1 A2 B1 VGND VNB VPB VPWR X
.ends

* Black-box entry subcircuit for sky130_fd_sc_hd__a31o_2 abstract view
.subckt sky130_fd_sc_hd__a31o_2 A1 A2 A3 B1 VGND VNB VPB VPWR X
.ends

* Black-box entry subcircuit for sky130_fd_sc_hd__and2_2 abstract view
.subckt sky130_fd_sc_hd__and2_2 A B VGND VNB VPB VPWR X
.ends

* Black-box entry subcircuit for sky130_fd_sc_hd__o31a_2 abstract view
.subckt sky130_fd_sc_hd__o31a_2 A1 A2 A3 B1 VGND VNB VPB VPWR X
.ends

* Black-box entry subcircuit for sky130_fd_sc_hd__or2_2 abstract view
.subckt sky130_fd_sc_hd__or2_2 A B VGND VNB VPB VPWR X
.ends

* Black-box entry subcircuit for sky130_fd_sc_hd__nor2b_2 abstract view
.subckt sky130_fd_sc_hd__nor2b_2 A B_N VGND VNB VPB VPWR Y
.ends

* Black-box entry subcircuit for sky130_fd_sc_hd__o21a_2 abstract view
.subckt sky130_fd_sc_hd__o21a_2 A1 A2 B1 VGND VNB VPB VPWR X
.ends

* Black-box entry subcircuit for sky130_fd_sc_hd__o41ai_4 abstract view
.subckt sky130_fd_sc_hd__o41ai_4 A1 A2 A3 A4 B1 VGND VNB VPB VPWR Y
.ends

* Black-box entry subcircuit for sky130_fd_sc_hd__clkbuf_16 abstract view
.subckt sky130_fd_sc_hd__clkbuf_16 A VGND VNB VPB VPWR X
.ends

* Black-box entry subcircuit for sky130_fd_sc_hd__inv_2 abstract view
.subckt sky130_fd_sc_hd__inv_2 A VGND VNB VPB VPWR Y
.ends

* Black-box entry subcircuit for sky130_fd_sc_hd__o211a_2 abstract view
.subckt sky130_fd_sc_hd__o211a_2 A1 A2 B1 C1 VGND VNB VPB VPWR X
.ends

* Black-box entry subcircuit for sky130_fd_sc_hd__nor2_2 abstract view
.subckt sky130_fd_sc_hd__nor2_2 A B VGND VNB VPB VPWR Y
.ends

* Black-box entry subcircuit for sky130_fd_sc_hd__buf_2 abstract view
.subckt sky130_fd_sc_hd__buf_2 A VGND VNB VPB VPWR X
.ends

* Black-box entry subcircuit for sky130_fd_sc_hd__o41a_2 abstract view
.subckt sky130_fd_sc_hd__o41a_2 A1 A2 A3 A4 B1 VGND VNB VPB VPWR X
.ends

* Black-box entry subcircuit for sky130_fd_sc_hd__nand3_2 abstract view
.subckt sky130_fd_sc_hd__nand3_2 A B C VGND VNB VPB VPWR Y
.ends

* Black-box entry subcircuit for sky130_fd_sc_hd__a32o_2 abstract view
.subckt sky130_fd_sc_hd__a32o_2 A1 A2 A3 B1 B2 VGND VNB VPB VPWR X
.ends

* Black-box entry subcircuit for sky130_fd_sc_hd__a221o_2 abstract view
.subckt sky130_fd_sc_hd__a221o_2 A1 A2 B1 B2 C1 VGND VNB VPB VPWR X
.ends

* Black-box entry subcircuit for sky130_fd_sc_hd__nor4b_1 abstract view
.subckt sky130_fd_sc_hd__nor4b_1 A B C D_N VGND VNB VPB VPWR Y
.ends

* Black-box entry subcircuit for sky130_fd_sc_hd__and4b_2 abstract view
.subckt sky130_fd_sc_hd__and4b_2 A_N B C D VGND VNB VPB VPWR X
.ends

* Black-box entry subcircuit for sky130_fd_sc_hd__nand2_2 abstract view
.subckt sky130_fd_sc_hd__nand2_2 A B VGND VNB VPB VPWR Y
.ends

* Black-box entry subcircuit for sky130_fd_sc_hd__or3_2 abstract view
.subckt sky130_fd_sc_hd__or3_2 A B C VGND VNB VPB VPWR X
.ends

* Black-box entry subcircuit for sky130_fd_sc_hd__xor2_2 abstract view
.subckt sky130_fd_sc_hd__xor2_2 A B VGND VNB VPB VPWR X
.ends

* Black-box entry subcircuit for sky130_fd_sc_hd__a2111o_2 abstract view
.subckt sky130_fd_sc_hd__a2111o_2 A1 A2 B1 C1 D1 VGND VNB VPB VPWR X
.ends

* Black-box entry subcircuit for sky130_fd_sc_hd__and3b_2 abstract view
.subckt sky130_fd_sc_hd__and3b_2 A_N B C VGND VNB VPB VPWR X
.ends

* Black-box entry subcircuit for sky130_fd_sc_hd__nor3b_2 abstract view
.subckt sky130_fd_sc_hd__nor3b_2 A B C_N VGND VNB VPB VPWR Y
.ends

* Black-box entry subcircuit for sky130_fd_sc_hd__a21bo_2 abstract view
.subckt sky130_fd_sc_hd__a21bo_2 A1 A2 B1_N VGND VNB VPB VPWR X
.ends

* Black-box entry subcircuit for sky130_fd_sc_hd__or3b_2 abstract view
.subckt sky130_fd_sc_hd__or3b_2 A B C_N VGND VNB VPB VPWR X
.ends

* Black-box entry subcircuit for sky130_fd_sc_hd__nor4b_2 abstract view
.subckt sky130_fd_sc_hd__nor4b_2 A B C D_N VGND VNB VPB VPWR Y
.ends

* Black-box entry subcircuit for sky130_fd_sc_hd__or4b_2 abstract view
.subckt sky130_fd_sc_hd__or4b_2 A B C D_N VGND VNB VPB VPWR X
.ends

* Black-box entry subcircuit for sky130_fd_sc_hd__buf_4 abstract view
.subckt sky130_fd_sc_hd__buf_4 A VGND VNB VPB VPWR X
.ends

.subckt spi_to_wbs spi_cs_n spi_miso spi_mosi spi_sck vccd1 vssd1 wbs_adr_o[0] wbs_adr_o[10]
+ wbs_adr_o[11] wbs_adr_o[12] wbs_adr_o[13] wbs_adr_o[14] wbs_adr_o[15] wbs_adr_o[16]
+ wbs_adr_o[17] wbs_adr_o[18] wbs_adr_o[19] wbs_adr_o[1] wbs_adr_o[20] wbs_adr_o[21]
+ wbs_adr_o[22] wbs_adr_o[23] wbs_adr_o[24] wbs_adr_o[25] wbs_adr_o[26] wbs_adr_o[27]
+ wbs_adr_o[28] wbs_adr_o[29] wbs_adr_o[2] wbs_adr_o[30] wbs_adr_o[31] wbs_adr_o[3]
+ wbs_adr_o[4] wbs_adr_o[5] wbs_adr_o[6] wbs_adr_o[7] wbs_adr_o[8] wbs_adr_o[9] wbs_cyc_o
+ wbs_dat_i[0] wbs_dat_i[10] wbs_dat_i[11] wbs_dat_i[12] wbs_dat_i[13] wbs_dat_i[14]
+ wbs_dat_i[15] wbs_dat_i[16] wbs_dat_i[17] wbs_dat_i[18] wbs_dat_i[19] wbs_dat_i[1]
+ wbs_dat_i[20] wbs_dat_i[21] wbs_dat_i[22] wbs_dat_i[23] wbs_dat_i[24] wbs_dat_i[25]
+ wbs_dat_i[26] wbs_dat_i[27] wbs_dat_i[28] wbs_dat_i[29] wbs_dat_i[2] wbs_dat_i[30]
+ wbs_dat_i[31] wbs_dat_i[3] wbs_dat_i[4] wbs_dat_i[5] wbs_dat_i[6] wbs_dat_i[7] wbs_dat_i[8]
+ wbs_dat_i[9] wbs_dat_o[0] wbs_dat_o[10] wbs_dat_o[11] wbs_dat_o[12] wbs_dat_o[13]
+ wbs_dat_o[14] wbs_dat_o[15] wbs_dat_o[16] wbs_dat_o[17] wbs_dat_o[18] wbs_dat_o[19]
+ wbs_dat_o[1] wbs_dat_o[20] wbs_dat_o[21] wbs_dat_o[22] wbs_dat_o[23] wbs_dat_o[24]
+ wbs_dat_o[25] wbs_dat_o[26] wbs_dat_o[27] wbs_dat_o[28] wbs_dat_o[29] wbs_dat_o[2]
+ wbs_dat_o[30] wbs_dat_o[31] wbs_dat_o[3] wbs_dat_o[4] wbs_dat_o[5] wbs_dat_o[6]
+ wbs_dat_o[7] wbs_dat_o[8] wbs_dat_o[9] wbs_stb_o wbs_we_o
XTAP_TAPCELL_ROW_32_194 vssd1 vccd1 sky130_fd_sc_hd__tapvpwrvgnd_1
XFILLER_0_27_60 vssd1 vssd1 vccd1 vccd1 sky130_fd_sc_hd__fill_1
XFILLER_0_4_193 vssd1 vssd1 vccd1 vccd1 sky130_fd_sc_hd__decap_3
XPHY_EDGE_ROW_37_Left_75 vssd1 vssd1 vccd1 vccd1 sky130_fd_sc_hd__decap_3
XTAP_TAPCELL_ROW_23_161 vssd1 vccd1 sky130_fd_sc_hd__tapvpwrvgnd_1
XPHY_EDGE_ROW_21_Left_59 vssd1 vssd1 vccd1 vccd1 sky130_fd_sc_hd__decap_3
X_0985_ clknet_4_1_0_spi_sck _0040_ vssd1 vssd1 vccd1 vccd1 data_out\[20\] sky130_fd_sc_hd__dfxtp_2
XFILLER_0_18_29 vssd1 vssd1 vccd1 vccd1 sky130_fd_sc_hd__fill_2
XTAP_TAPCELL_ROW_34_201 vssd1 vccd1 sky130_fd_sc_hd__tapvpwrvgnd_1
X_0770_ _0390_ vssd1 vssd1 vccd1 vccd1 _0096_ sky130_fd_sc_hd__buf_1
XTAP_TAPCELL_ROW_11_120 vssd1 vccd1 sky130_fd_sc_hd__tapvpwrvgnd_1
X_0968_ clknet_4_3_0_spi_sck _0023_ vssd1 vssd1 vccd1 vccd1 shift_out\[3\] sky130_fd_sc_hd__dfxtp_2
X_0899_ wbs_dat_o[30] data_in\[30\] _0443_ vssd1 vssd1 vccd1 vccd1 _0452_ sky130_fd_sc_hd__mux2_2
X_0753_ addr\[30\] addr\[14\] _0216_ vssd1 vssd1 vccd1 vccd1 _0380_ sky130_fd_sc_hd__mux2_2
XFILLER_0_28_114 vssd1 vssd1 vccd1 vccd1 sky130_fd_sc_hd__decap_6
XPHY_EDGE_ROW_24_Left_62 vssd1 vssd1 vccd1 vccd1 sky130_fd_sc_hd__decap_3
X_0822_ _0412_ vssd1 vssd1 vccd1 vccd1 _0126_ sky130_fd_sc_hd__buf_1
X_0684_ _0335_ vssd1 vssd1 vccd1 vccd1 _0065_ sky130_fd_sc_hd__buf_1
X_1098_ clknet_4_14_0_spi_sck _0153_ vssd1 vssd1 vccd1 vccd1 wbs_dat_o[18] sky130_fd_sc_hd__dfxtp_2
XFILLER_0_18_191 vssd1 vssd1 vccd1 vccd1 sky130_fd_sc_hd__decap_4
X_0736_ _0368_ wbs_adr_o[8] _0356_ vssd1 vssd1 vccd1 vccd1 _0369_ sky130_fd_sc_hd__mux2_2
XFILLER_0_34_3 vssd1 vssd1 vccd1 vccd1 sky130_fd_sc_hd__decap_6
X_0805_ _0403_ vssd1 vssd1 vccd1 vccd1 _0118_ sky130_fd_sc_hd__buf_1
X_1021_ clknet_4_15_0_spi_sck _0076_ vssd1 vssd1 vccd1 vccd1 wbs_adr_o[0] sky130_fd_sc_hd__dfxtp_2
X_0667_ _0326_ vssd1 vssd1 vccd1 vccd1 _0057_ sky130_fd_sc_hd__buf_1
XFILLER_0_24_183 vccd1 vssd1 vccd1 vssd1 sky130_ef_sc_hd__decap_12
XFILLER_0_16_139 vssd1 vssd1 vccd1 vccd1 sky130_fd_sc_hd__fill_1
X_0598_ _0252_ _0253_ _0286_ _0287_ vssd1 vssd1 vccd1 vccd1 _0288_ sky130_fd_sc_hd__or4_2
XFILLER_0_32_83 vssd1 vssd1 vccd1 vccd1 sky130_fd_sc_hd__fill_1
X_0521_ addr\[30\] _0223_ _0227_ vssd1 vssd1 vccd1 vccd1 _0228_ sky130_fd_sc_hd__mux2_2
X_1004_ clknet_4_4_0_spi_sck _0059_ vssd1 vssd1 vccd1 vccd1 addr\[15\] sky130_fd_sc_hd__dfxtp_2
XFILLER_0_16_62 vssd1 vssd1 vccd1 vccd1 sky130_fd_sc_hd__fill_1
XFILLER_0_8_103 vccd1 vssd1 vccd1 vssd1 sky130_ef_sc_hd__decap_12
XFILLER_0_32_94 vssd1 vssd1 vccd1 vccd1 sky130_fd_sc_hd__decap_8
X_0719_ _0357_ vssd1 vssd1 vccd1 vccd1 _0078_ sky130_fd_sc_hd__buf_1
XFILLER_0_26_223 vssd1 vssd1 vccd1 vccd1 sky130_fd_sc_hd__fill_1
XTAP_TAPCELL_ROW_26_170 vssd1 vccd1 sky130_fd_sc_hd__tapvpwrvgnd_1
XFILLER_0_27_94 vssd1 vssd1 vccd1 vccd1 sky130_fd_sc_hd__fill_1
X_0504_ state\[2\] state\[1\] state\[0\] state\[3\] vssd1 vssd1 vccd1 vccd1 _0215_
+ sky130_fd_sc_hd__and4bb_2
XTAP_TAPCELL_ROW_23_162 vssd1 vccd1 sky130_fd_sc_hd__tapvpwrvgnd_1
X_0984_ clknet_4_2_0_spi_sck _0039_ vssd1 vssd1 vccd1 vccd1 data_out\[19\] sky130_fd_sc_hd__dfxtp_2
XTAP_TAPCELL_ROW_37_210 vssd1 vccd1 sky130_fd_sc_hd__tapvpwrvgnd_1
XFILLER_0_37_159 vssd1 vssd1 vccd1 vccd1 sky130_fd_sc_hd__fill_1
XPHY_EDGE_ROW_21_Right_21 vssd1 vssd1 vccd1 vccd1 sky130_fd_sc_hd__decap_3
XPHY_EDGE_ROW_12_Right_12 vssd1 vssd1 vccd1 vccd1 sky130_fd_sc_hd__decap_3
X_0898_ _0451_ vssd1 vssd1 vccd1 vccd1 _0164_ sky130_fd_sc_hd__buf_1
X_0967_ clknet_4_2_0_spi_sck _0022_ vssd1 vssd1 vccd1 vccd1 shift_out\[2\] sky130_fd_sc_hd__dfxtp_2
XFILLER_0_36_192 vssd1 vssd1 vccd1 vccd1 sky130_fd_sc_hd__decap_4
X_0752_ _0379_ vssd1 vssd1 vccd1 vccd1 _0089_ sky130_fd_sc_hd__buf_1
XPHY_EDGE_ROW_30_Right_30 vssd1 vssd1 vccd1 vccd1 sky130_fd_sc_hd__decap_3
X_0821_ _0236_ data_in\[10\] _0409_ vssd1 vssd1 vccd1 vccd1 _0412_ sky130_fd_sc_hd__mux2_2
XFILLER_0_36_7 vssd1 vssd1 vccd1 vccd1 sky130_fd_sc_hd__fill_1
XFILLER_0_35_94 vssd1 vssd1 vccd1 vccd1 sky130_fd_sc_hd__fill_1
XFILLER_0_19_126 vssd1 vssd1 vccd1 vccd1 sky130_fd_sc_hd__decap_4
XFILLER_0_19_73 vssd1 vssd1 vccd1 vccd1 sky130_fd_sc_hd__fill_1
X_1097_ clknet_4_11_0_spi_sck _0152_ vssd1 vssd1 vccd1 vccd1 wbs_dat_o[17] sky130_fd_sc_hd__dfxtp_2
X_0683_ _0242_ data_in\[5\] _0329_ vssd1 vssd1 vccd1 vccd1 _0335_ sky130_fd_sc_hd__mux2_2
XFILLER_0_10_75 vssd1 vssd1 vccd1 vccd1 sky130_fd_sc_hd__fill_1
X_0735_ addr\[24\] addr\[8\] _0348_ vssd1 vssd1 vccd1 vccd1 _0368_ sky130_fd_sc_hd__mux2_2
X_0666_ addr\[13\] _0242_ _0320_ vssd1 vssd1 vccd1 vccd1 _0326_ sky130_fd_sc_hd__mux2_2
X_0804_ addr\[2\] _0236_ _0400_ vssd1 vssd1 vccd1 vccd1 _0403_ sky130_fd_sc_hd__mux2_2
X_1020_ clknet_4_14_0_spi_sck _0075_ vssd1 vssd1 vccd1 vccd1 addr\[23\] sky130_fd_sc_hd__dfxtp_2
XFILLER_0_24_195 vssd1 vssd1 vccd1 vccd1 sky130_fd_sc_hd__fill_1
X_0597_ data_out\[23\] _0194_ _0247_ wbs_dat_i[7] vssd1 vssd1 vccd1 vccd1 _0287_ sky130_fd_sc_hd__a22o_2
XFILLER_0_30_121 vssd1 vssd1 vccd1 vccd1 sky130_fd_sc_hd__fill_1
XFILLER_0_27_3 vssd1 vssd1 vccd1 vccd1 sky130_fd_sc_hd__decap_6
XFILLER_0_15_173 vssd1 vssd1 vccd1 vccd1 sky130_fd_sc_hd__fill_1
X_1003_ clknet_4_4_0_spi_sck _0058_ vssd1 vssd1 vccd1 vccd1 addr\[14\] sky130_fd_sc_hd__dfxtp_2
X_0520_ _0226_ vssd1 vssd1 vccd1 vccd1 _0227_ sky130_fd_sc_hd__clkbuf_4
XFILLER_0_21_165 vssd1 vssd1 vccd1 vccd1 sky130_fd_sc_hd__decap_3
XFILLER_0_16_85 vssd1 vssd1 vccd1 vccd1 sky130_fd_sc_hd__decap_3
XFILLER_0_6_29 vssd1 vssd1 vccd1 vccd1 sky130_fd_sc_hd__fill_2
XFILLER_0_29_210 vssd1 vssd1 vccd1 vccd1 sky130_fd_sc_hd__decap_6
X_0718_ _0355_ wbs_adr_o[2] _0356_ vssd1 vssd1 vccd1 vccd1 _0357_ sky130_fd_sc_hd__mux2_2
X_0649_ wbs_dat_i[30] data_out\[30\] _0291_ vssd1 vssd1 vccd1 vccd1 _0316_ sky130_fd_sc_hd__mux2_2
XPHY_EDGE_ROW_6_Right_6 vssd1 vssd1 vccd1 vccd1 sky130_fd_sc_hd__decap_3
XFILLER_0_8_115 vssd1 vssd1 vccd1 vccd1 sky130_fd_sc_hd__decap_4
XFILLER_0_37_29 vssd1 vssd1 vccd1 vccd1 sky130_fd_sc_hd__decap_8
XTAP_TAPCELL_ROW_26_171 vssd1 vccd1 sky130_fd_sc_hd__tapvpwrvgnd_1
XFILLER_0_27_73 vssd1 vssd1 vccd1 vccd1 sky130_fd_sc_hd__fill_2
X_0503_ bit_count\[1\] bit_count\[0\] bit_count\[2\] vssd1 vssd1 vccd1 vccd1 _0214_
+ sky130_fd_sc_hd__and3_2
XTAP_TAPCELL_ROW_14_130 vssd1 vccd1 sky130_fd_sc_hd__tapvpwrvgnd_1
X_0983_ clknet_4_2_0_spi_sck _0038_ vssd1 vssd1 vccd1 vccd1 data_out\[18\] sky130_fd_sc_hd__dfxtp_2
XTAP_TAPCELL_ROW_3_90 vssd1 vccd1 sky130_fd_sc_hd__tapvpwrvgnd_1
XTAP_TAPCELL_ROW_37_211 vssd1 vccd1 sky130_fd_sc_hd__tapvpwrvgnd_1
X_0897_ wbs_dat_o[29] data_in\[29\] _0443_ vssd1 vssd1 vccd1 vccd1 _0451_ sky130_fd_sc_hd__mux2_2
XFILLER_0_4_73 vssd1 vssd1 vccd1 vccd1 sky130_fd_sc_hd__fill_2
X_0966_ clknet_4_2_0_spi_sck _0021_ vssd1 vssd1 vccd1 vccd1 shift_out\[1\] sky130_fd_sc_hd__dfxtp_2
Xclkbuf_4_1_0_spi_sck clknet_0_spi_sck vssd1 vssd1 vccd1 vccd1 clknet_4_1_0_spi_sck
+ sky130_fd_sc_hd__clkbuf_8
XFILLER_0_35_73 vssd1 vssd1 vccd1 vccd1 sky130_fd_sc_hd__decap_4
XFILLER_0_34_119 vssd1 vssd1 vccd1 vccd1 sky130_fd_sc_hd__decap_4
X_0751_ _0378_ wbs_adr_o[13] _0350_ vssd1 vssd1 vccd1 vccd1 _0379_ sky130_fd_sc_hd__mux2_2
XFILLER_0_19_105 vssd1 vssd1 vccd1 vccd1 sky130_fd_sc_hd__decap_6
X_1096_ clknet_4_9_0_spi_sck _0151_ vssd1 vssd1 vccd1 vccd1 wbs_dat_o[16] sky130_fd_sc_hd__dfxtp_2
X_0682_ _0334_ vssd1 vssd1 vccd1 vccd1 _0064_ sky130_fd_sc_hd__buf_1
XTAP_TAPCELL_ROW_0_80 vssd1 vccd1 sky130_fd_sc_hd__tapvpwrvgnd_1
X_0820_ _0411_ vssd1 vssd1 vccd1 vccd1 _0125_ sky130_fd_sc_hd__buf_1
X_0949_ _0474_ vssd1 vssd1 vccd1 vccd1 _0189_ sky130_fd_sc_hd__buf_1
X_0665_ _0325_ vssd1 vssd1 vccd1 vccd1 _0056_ sky130_fd_sc_hd__buf_1
XFILLER_0_33_185 vssd1 vssd1 vccd1 vccd1 sky130_fd_sc_hd__fill_1
X_0803_ _0402_ vssd1 vssd1 vccd1 vccd1 _0117_ sky130_fd_sc_hd__buf_1
X_0734_ _0367_ vssd1 vssd1 vccd1 vccd1 _0083_ sky130_fd_sc_hd__buf_1
XFILLER_0_24_141 vssd1 vssd1 vccd1 vccd1 sky130_fd_sc_hd__decap_3
XFILLER_0_21_64 vssd1 vssd1 vccd1 vccd1 sky130_fd_sc_hd__fill_1
X_1079_ clknet_4_15_0_spi_sck _0134_ vssd1 vssd1 vccd1 vccd1 wbs_we_o sky130_fd_sc_hd__dfxtp_2
XFILLER_0_15_130 vssd1 vssd1 vccd1 vccd1 sky130_fd_sc_hd__fill_1
XFILLER_0_1_74 vssd1 vssd1 vccd1 vccd1 sky130_fd_sc_hd__fill_1
X_0596_ data_out\[31\] _0198_ _0249_ data_out\[15\] vssd1 vssd1 vccd1 vccd1 _0286_
+ sky130_fd_sc_hd__a22o_2
Xhold10 addr\[20\] vssd1 vssd1 vccd1 vccd1 net11 sky130_fd_sc_hd__dlygate4sd3_1
X_0717_ _0350_ vssd1 vssd1 vccd1 vccd1 _0356_ sky130_fd_sc_hd__clkbuf_4
X_1002_ clknet_4_5_0_spi_sck _0057_ vssd1 vssd1 vccd1 vccd1 addr\[13\] sky130_fd_sc_hd__dfxtp_2
X_0648_ _0315_ vssd1 vssd1 vccd1 vccd1 _0049_ sky130_fd_sc_hd__buf_1
X_0579_ data_out\[28\] _0198_ _0249_ data_out\[12\] vssd1 vssd1 vccd1 vccd1 _0272_
+ sky130_fd_sc_hd__a22o_2
XFILLER_0_9_3 vssd1 vssd1 vccd1 vccd1 sky130_fd_sc_hd__decap_8
XTAP_TAPCELL_ROW_26_172 vssd1 vccd1 sky130_fd_sc_hd__tapvpwrvgnd_1
X_0502_ _0196_ _0202_ _0213_ vssd1 vssd1 vccd1 vccd1 _0175_ sky130_fd_sc_hd__a21oi_2
XFILLER_0_4_141 vccd1 vssd1 vccd1 vssd1 sky130_ef_sc_hd__decap_12
XFILLER_0_4_185 vssd1 vssd1 vccd1 vccd1 sky130_fd_sc_hd__decap_8
XTAP_TAPCELL_ROW_14_131 vssd1 vccd1 sky130_fd_sc_hd__tapvpwrvgnd_1
XFILLER_0_13_98 vccd1 vssd1 vccd1 vssd1 sky130_ef_sc_hd__decap_12
XFILLER_0_13_21 vssd1 vssd1 vccd1 vccd1 sky130_fd_sc_hd__fill_2
X_0982_ clknet_4_0_0_spi_sck _0037_ vssd1 vssd1 vccd1 vccd1 data_out\[17\] sky130_fd_sc_hd__dfxtp_2
XTAP_TAPCELL_ROW_37_212 vssd1 vccd1 sky130_fd_sc_hd__tapvpwrvgnd_1
XFILLER_0_1_111 vssd1 vssd1 vccd1 vccd1 sky130_fd_sc_hd__fill_1
XTAP_TAPCELL_ROW_3_91 vssd1 vccd1 sky130_fd_sc_hd__tapvpwrvgnd_1
XFILLER_0_24_64 vssd1 vssd1 vccd1 vccd1 sky130_fd_sc_hd__decap_3
XFILLER_0_4_63 vssd1 vssd1 vccd1 vccd1 sky130_fd_sc_hd__fill_2
X_0965_ clknet_4_10_0_spi_sck _0020_ vssd1 vssd1 vccd1 vccd1 data_in\[31\] sky130_fd_sc_hd__dfxtp_2
X_0896_ _0450_ vssd1 vssd1 vccd1 vccd1 _0163_ sky130_fd_sc_hd__buf_1
XFILLER_0_37_117 vccd1 vssd1 vccd1 vssd1 sky130_ef_sc_hd__decap_12
XFILLER_0_37_106 vssd1 vssd1 vccd1 vccd1 sky130_fd_sc_hd__decap_6
Xclkbuf_4_5_0_spi_sck clknet_0_spi_sck vssd1 vssd1 vccd1 vccd1 clknet_4_5_0_spi_sck
+ sky130_fd_sc_hd__clkbuf_8
XFILLER_0_35_63 vssd1 vssd1 vccd1 vccd1 sky130_fd_sc_hd__fill_1
XFILLER_0_35_52 vssd1 vssd1 vccd1 vccd1 sky130_fd_sc_hd__fill_1
X_0750_ addr\[29\] addr\[13\] _0216_ vssd1 vssd1 vccd1 vccd1 _0378_ sky130_fd_sc_hd__mux2_2
XFILLER_0_28_139 vssd1 vssd1 vccd1 vccd1 sky130_fd_sc_hd__fill_1
XFILLER_0_19_31 vssd1 vssd1 vccd1 vccd1 sky130_fd_sc_hd__fill_1
X_1095_ clknet_4_11_0_spi_sck _0150_ vssd1 vssd1 vccd1 vccd1 wbs_dat_o[15] sky130_fd_sc_hd__dfxtp_2
XTAP_TAPCELL_ROW_0_81 vssd1 vccd1 sky130_fd_sc_hd__tapvpwrvgnd_1
X_0681_ _0240_ data_in\[4\] _0329_ vssd1 vssd1 vccd1 vccd1 _0334_ sky130_fd_sc_hd__mux2_2
X_0948_ addr\[26\] shift_in\[1\] _0227_ vssd1 vssd1 vccd1 vccd1 _0474_ sky130_fd_sc_hd__mux2_2
XFILLER_0_27_183 vssd1 vssd1 vccd1 vccd1 sky130_fd_sc_hd__fill_1
X_0879_ _0441_ vssd1 vssd1 vccd1 vccd1 _0155_ sky130_fd_sc_hd__buf_1
XFILLER_0_19_139 vssd1 vssd1 vccd1 vccd1 sky130_fd_sc_hd__decap_6
XPHY_EDGE_ROW_28_Left_66 vssd1 vssd1 vccd1 vccd1 sky130_fd_sc_hd__decap_3
X_0802_ addr\[1\] _0234_ _0400_ vssd1 vssd1 vccd1 vccd1 _0402_ sky130_fd_sc_hd__mux2_2
XFILLER_0_0_209 vccd1 vssd1 vccd1 vssd1 sky130_ef_sc_hd__decap_12
X_0664_ addr\[12\] _0240_ _0320_ vssd1 vssd1 vccd1 vccd1 _0325_ sky130_fd_sc_hd__mux2_2
X_0733_ _0366_ wbs_adr_o[7] _0356_ vssd1 vssd1 vccd1 vccd1 _0367_ sky130_fd_sc_hd__mux2_2
XFILLER_0_24_197 vccd1 vssd1 vccd1 vssd1 sky130_ef_sc_hd__decap_12
XFILLER_0_24_164 vssd1 vssd1 vccd1 vccd1 sky130_fd_sc_hd__decap_3
XFILLER_0_24_153 vssd1 vssd1 vccd1 vccd1 sky130_fd_sc_hd__decap_8
X_1078_ clknet_4_1_0_spi_sck _0133_ _0003_ vssd1 vssd1 vccd1 vccd1 wbs_cyc_o sky130_fd_sc_hd__dfrtp_2
X_0595_ _0246_ _0250_ shift_out\[6\] vssd1 vssd1 vccd1 vccd1 _0285_ sky130_fd_sc_hd__a21o_2
Xhold11 addr\[19\] vssd1 vssd1 vccd1 vccd1 net12 sky130_fd_sc_hd__dlygate4sd3_1
X_1001_ clknet_4_5_0_spi_sck _0056_ vssd1 vssd1 vccd1 vccd1 addr\[12\] sky130_fd_sc_hd__dfxtp_2
X_0716_ shift_in\[1\] addr\[2\] _0348_ vssd1 vssd1 vccd1 vccd1 _0355_ sky130_fd_sc_hd__mux2_2
XFILLER_0_32_75 vssd1 vssd1 vccd1 vccd1 sky130_fd_sc_hd__decap_8
XTAP_TAPCELL_ROW_29_181 vssd1 vccd1 sky130_fd_sc_hd__tapvpwrvgnd_1
X_0647_ wbs_dat_i[29] data_out\[29\] _0291_ vssd1 vssd1 vccd1 vccd1 _0315_ sky130_fd_sc_hd__mux2_2
XFILLER_0_16_98 vssd1 vssd1 vccd1 vccd1 sky130_fd_sc_hd__fill_1
X_0578_ data_out\[20\] _0194_ _0247_ wbs_dat_i[4] vssd1 vssd1 vccd1 vccd1 _0271_ sky130_fd_sc_hd__a22o_2
XFILLER_0_32_3 vssd1 vssd1 vccd1 vccd1 sky130_fd_sc_hd__decap_4
XTAP_TAPCELL_ROW_26_173 vssd1 vccd1 sky130_fd_sc_hd__tapvpwrvgnd_1
XFILLER_0_27_86 vssd1 vssd1 vccd1 vccd1 sky130_fd_sc_hd__decap_8
X_0501_ _0202_ _0210_ _0196_ vssd1 vssd1 vccd1 vccd1 _0213_ sky130_fd_sc_hd__a21oi_2
XTAP_TAPCELL_ROW_17_140 vssd1 vccd1 sky130_fd_sc_hd__tapvpwrvgnd_1
XPHY_EDGE_ROW_15_Left_53 vssd1 vssd1 vccd1 vccd1 sky130_fd_sc_hd__decap_3
XFILLER_0_4_153 vccd1 vssd1 vccd1 vssd1 sky130_ef_sc_hd__decap_12
XFILLER_0_4_197 vssd1 vssd1 vccd1 vccd1 sky130_fd_sc_hd__decap_8
XFILLER_0_7_74 vssd1 vssd1 vccd1 vccd1 sky130_fd_sc_hd__fill_1
X_0981_ clknet_4_0_0_spi_sck _0036_ vssd1 vssd1 vccd1 vccd1 data_out\[16\] sky130_fd_sc_hd__dfxtp_2
XTAP_TAPCELL_ROW_37_213 vssd1 vccd1 sky130_fd_sc_hd__tapvpwrvgnd_1
XFILLER_0_1_167 vssd1 vssd1 vccd1 vccd1 sky130_fd_sc_hd__fill_1
XFILLER_0_1_134 vssd1 vssd1 vccd1 vccd1 sky130_fd_sc_hd__decap_4
XTAP_TAPCELL_ROW_3_92 vssd1 vccd1 sky130_fd_sc_hd__tapvpwrvgnd_1
XFILLER_0_9_223 vssd1 vssd1 vccd1 vccd1 sky130_fd_sc_hd__fill_1
XPHY_EDGE_ROW_0_Left_38 vssd1 vssd1 vccd1 vccd1 sky130_fd_sc_hd__decap_3
X_0895_ wbs_dat_o[28] data_in\[28\] _0443_ vssd1 vssd1 vccd1 vccd1 _0450_ sky130_fd_sc_hd__mux2_2
X_0964_ clknet_4_10_0_spi_sck _0019_ vssd1 vssd1 vccd1 vccd1 data_in\[30\] sky130_fd_sc_hd__dfxtp_2
XFILLER_0_36_162 vssd1 vssd1 vccd1 vccd1 sky130_fd_sc_hd__decap_4
Xclkbuf_4_9_0_spi_sck clknet_0_spi_sck vssd1 vssd1 vccd1 vccd1 clknet_4_9_0_spi_sck
+ sky130_fd_sc_hd__clkbuf_8
X_0680_ _0333_ vssd1 vssd1 vccd1 vccd1 _0063_ sky130_fd_sc_hd__buf_1
XTAP_TAPCELL_ROW_0_82 vssd1 vccd1 sky130_fd_sc_hd__tapvpwrvgnd_1
X_0947_ _0473_ vssd1 vssd1 vccd1 vccd1 _0188_ sky130_fd_sc_hd__buf_1
X_0878_ wbs_dat_o[20] data_in\[20\] _0432_ vssd1 vssd1 vccd1 vccd1 _0441_ sky130_fd_sc_hd__mux2_2
X_1094_ clknet_4_11_0_spi_sck _0149_ vssd1 vssd1 vccd1 vccd1 wbs_dat_o[14] sky130_fd_sc_hd__dfxtp_2
XFILLER_0_18_195 vssd1 vssd1 vccd1 vccd1 sky130_fd_sc_hd__fill_1
XPHY_EDGE_ROW_3_Left_41 vssd1 vssd1 vccd1 vccd1 sky130_fd_sc_hd__decap_3
X_0663_ _0324_ vssd1 vssd1 vccd1 vccd1 _0055_ sky130_fd_sc_hd__buf_1
X_0801_ _0401_ vssd1 vssd1 vccd1 vccd1 _0116_ sky130_fd_sc_hd__buf_1
X_0732_ shift_in\[6\] addr\[7\] _0348_ vssd1 vssd1 vccd1 vccd1 _0366_ sky130_fd_sc_hd__mux2_2
XFILLER_0_24_176 vssd1 vssd1 vccd1 vccd1 sky130_fd_sc_hd__decap_4
X_1077_ clknet_4_3_0_spi_sck _0132_ vssd1 vssd1 vccd1 vccd1 spi_miso sky130_fd_sc_hd__dfxtp_2
X_0594_ _0003_ _0280_ _0283_ _0284_ vssd1 vssd1 vccd1 vccd1 _0026_ sky130_fd_sc_hd__a31o_2
Xhold12 addr\[23\] vssd1 vssd1 vccd1 vccd1 net13 sky130_fd_sc_hd__dlygate4sd3_1
X_1000_ clknet_4_7_0_spi_sck _0055_ vssd1 vssd1 vccd1 vccd1 addr\[11\] sky130_fd_sc_hd__dfxtp_2
XFILLER_0_32_32 vssd1 vssd1 vccd1 vccd1 sky130_fd_sc_hd__decap_3
XTAP_TAPCELL_ROW_29_182 vssd1 vccd1 sky130_fd_sc_hd__tapvpwrvgnd_1
X_0715_ _0354_ vssd1 vssd1 vccd1 vccd1 _0077_ sky130_fd_sc_hd__buf_1
XFILLER_0_21_113 vssd1 vssd1 vccd1 vccd1 sky130_fd_sc_hd__fill_1
XFILLER_0_25_3 vssd1 vssd1 vccd1 vccd1 sky130_fd_sc_hd__decap_3
X_1129_ clknet_4_9_0_spi_sck _0181_ vssd1 vssd1 vccd1 vccd1 command\[2\] sky130_fd_sc_hd__dfxtp_2
X_0646_ _0314_ vssd1 vssd1 vccd1 vccd1 _0048_ sky130_fd_sc_hd__buf_1
X_0577_ _0246_ _0250_ shift_out\[3\] vssd1 vssd1 vccd1 vccd1 _0270_ sky130_fd_sc_hd__a21o_2
XPHY_EDGE_ROW_28_Right_28 vssd1 vssd1 vccd1 vccd1 sky130_fd_sc_hd__decap_3
X_0500_ _0212_ vssd1 vssd1 vccd1 vccd1 _0176_ sky130_fd_sc_hd__buf_1
XPHY_EDGE_ROW_19_Right_19 vssd1 vssd1 vccd1 vccd1 sky130_fd_sc_hd__decap_3
XPHY_EDGE_ROW_37_Right_37 vssd1 vssd1 vccd1 vccd1 sky130_fd_sc_hd__decap_3
XFILLER_0_27_54 vssd1 vssd1 vccd1 vccd1 sky130_fd_sc_hd__fill_2
XFILLER_0_27_32 vssd1 vssd1 vccd1 vccd1 sky130_fd_sc_hd__decap_4
XTAP_TAPCELL_ROW_17_141 vssd1 vccd1 sky130_fd_sc_hd__tapvpwrvgnd_1
XFILLER_0_4_110 vssd1 vssd1 vccd1 vccd1 sky130_fd_sc_hd__decap_3
X_0629_ wbs_dat_i[20] data_out\[20\] _0303_ vssd1 vssd1 vccd1 vccd1 _0306_ sky130_fd_sc_hd__mux2_2
XTAP_TAPCELL_ROW_37_214 vssd1 vccd1 sky130_fd_sc_hd__tapvpwrvgnd_1
XPHY_EDGE_ROW_32_Left_70 vssd1 vssd1 vccd1 vccd1 sky130_fd_sc_hd__decap_3
XFILLER_0_1_113 vssd1 vssd1 vccd1 vccd1 sky130_fd_sc_hd__fill_1
X_0980_ clknet_4_0_0_spi_sck _0035_ vssd1 vssd1 vccd1 vccd1 data_out\[15\] sky130_fd_sc_hd__dfxtp_2
XFILLER_0_24_88 vssd1 vssd1 vccd1 vccd1 sky130_fd_sc_hd__fill_2
X_0894_ _0449_ vssd1 vssd1 vccd1 vccd1 _0162_ sky130_fd_sc_hd__buf_1
X_0963_ clknet_4_10_0_spi_sck _0018_ vssd1 vssd1 vccd1 vccd1 data_in\[29\] sky130_fd_sc_hd__dfxtp_2
XFILLER_0_10_46 vssd1 vssd1 vccd1 vccd1 sky130_fd_sc_hd__decap_6
X_0946_ addr\[25\] shift_in\[0\] _0227_ vssd1 vssd1 vccd1 vccd1 _0473_ sky130_fd_sc_hd__mux2_2
X_0877_ _0440_ vssd1 vssd1 vccd1 vccd1 _0154_ sky130_fd_sc_hd__buf_1
XFILLER_0_19_88 vssd1 vssd1 vccd1 vccd1 sky130_fd_sc_hd__decap_4
XFILLER_0_19_44 vssd1 vssd1 vccd1 vccd1 sky130_fd_sc_hd__fill_2
X_1093_ clknet_4_11_0_spi_sck _0148_ vssd1 vssd1 vccd1 vccd1 wbs_dat_o[13] sky130_fd_sc_hd__dfxtp_2
XFILLER_0_33_177 vssd1 vssd1 vccd1 vccd1 sky130_fd_sc_hd__fill_1
XFILLER_0_18_141 vssd1 vssd1 vccd1 vccd1 sky130_fd_sc_hd__decap_8
X_0662_ addr\[11\] _0238_ _0320_ vssd1 vssd1 vccd1 vccd1 _0324_ sky130_fd_sc_hd__mux2_2
X_0800_ addr\[0\] _0231_ _0400_ vssd1 vssd1 vccd1 vccd1 _0401_ sky130_fd_sc_hd__mux2_2
X_0731_ _0365_ vssd1 vssd1 vccd1 vccd1 _0082_ sky130_fd_sc_hd__buf_1
X_0593_ _0263_ shift_out\[6\] vssd1 vssd1 vccd1 vccd1 _0284_ sky130_fd_sc_hd__and2_2
XFILLER_0_1_22 vssd1 vssd1 vccd1 vccd1 sky130_fd_sc_hd__decap_6
Xhold13 addr\[28\] vssd1 vssd1 vccd1 vccd1 net14 sky130_fd_sc_hd__dlygate4sd3_1
X_0929_ _0464_ vssd1 vssd1 vccd1 vccd1 _0179_ sky130_fd_sc_hd__buf_1
X_1076_ clknet_4_11_0_spi_sck _0131_ vssd1 vssd1 vccd1 vccd1 data_in\[15\] sky130_fd_sc_hd__dfxtp_2
XTAP_TAPCELL_ROW_29_183 vssd1 vccd1 sky130_fd_sc_hd__tapvpwrvgnd_1
XFILLER_0_21_169 vssd1 vssd1 vccd1 vccd1 sky130_fd_sc_hd__decap_4
XFILLER_0_8_119 vssd1 vssd1 vccd1 vccd1 sky130_fd_sc_hd__fill_1
X_1059_ clknet_4_6_0_spi_sck _0114_ vssd1 vssd1 vccd1 vccd1 wbs_adr_o[30] sky130_fd_sc_hd__dfxtp_2
X_0714_ _0353_ wbs_adr_o[1] _0351_ vssd1 vssd1 vccd1 vccd1 _0354_ sky130_fd_sc_hd__mux2_2
XFILLER_0_18_3 vssd1 vssd1 vccd1 vccd1 sky130_fd_sc_hd__decap_6
X_1128_ clknet_4_9_0_spi_sck _0180_ vssd1 vssd1 vccd1 vccd1 command\[1\] sky130_fd_sc_hd__dfxtp_2
X_0576_ _0257_ _0267_ _0268_ _0269_ vssd1 vssd1 vccd1 vccd1 _0023_ sky130_fd_sc_hd__o31a_2
X_0645_ wbs_dat_i[28] data_out\[28\] _0291_ vssd1 vssd1 vccd1 vccd1 _0314_ sky130_fd_sc_hd__mux2_2
X_0628_ _0305_ vssd1 vssd1 vccd1 vccd1 _0039_ sky130_fd_sc_hd__buf_1
XFILLER_0_7_3 vssd1 vssd1 vccd1 vccd1 sky130_fd_sc_hd__decap_3
X_0559_ data_out\[17\] _0194_ _0247_ wbs_dat_i[1] vssd1 vssd1 vccd1 vccd1 _0255_ sky130_fd_sc_hd__a22o_2
XTAP_TAPCELL_ROW_8_110 vssd1 vccd1 sky130_fd_sc_hd__tapvpwrvgnd_1
XFILLER_0_1_169 vssd1 vssd1 vccd1 vccd1 sky130_fd_sc_hd__decap_3
XTAP_TAPCELL_ROW_37_215 vssd1 vccd1 sky130_fd_sc_hd__tapvpwrvgnd_1
XFILLER_0_24_56 vssd1 vssd1 vccd1 vccd1 sky130_fd_sc_hd__decap_8
X_0962_ clknet_4_9_0_spi_sck _0017_ vssd1 vssd1 vccd1 vccd1 data_in\[28\] sky130_fd_sc_hd__dfxtp_2
XFILLER_0_10_223 vssd1 vssd1 vccd1 vccd1 sky130_fd_sc_hd__fill_1
X_0893_ wbs_dat_o[27] data_in\[27\] _0443_ vssd1 vssd1 vccd1 vccd1 _0449_ sky130_fd_sc_hd__mux2_2
XFILLER_0_36_197 vssd1 vssd1 vccd1 vccd1 sky130_fd_sc_hd__decap_6
XFILLER_0_3_209 vccd1 vssd1 vccd1 vssd1 sky130_ef_sc_hd__decap_12
XFILLER_0_10_25 vssd1 vssd1 vccd1 vccd1 sky130_fd_sc_hd__decap_3
X_0945_ _0472_ vssd1 vssd1 vccd1 vccd1 _0187_ sky130_fd_sc_hd__buf_1
X_0876_ wbs_dat_o[19] data_in\[19\] _0432_ vssd1 vssd1 vccd1 vccd1 _0440_ sky130_fd_sc_hd__mux2_2
XFILLER_0_19_23 vssd1 vssd1 vccd1 vccd1 sky130_fd_sc_hd__decap_8
X_1092_ clknet_4_9_0_spi_sck _0147_ vssd1 vssd1 vccd1 vccd1 wbs_dat_o[12] sky130_fd_sc_hd__dfxtp_2
XFILLER_0_18_197 vssd1 vssd1 vccd1 vccd1 sky130_fd_sc_hd__decap_4
Xclkbuf_4_11_0_spi_sck clknet_0_spi_sck vssd1 vssd1 vccd1 vccd1 clknet_4_11_0_spi_sck
+ sky130_fd_sc_hd__clkbuf_8
XFILLER_0_34_9 vssd1 vssd1 vccd1 vccd1 sky130_fd_sc_hd__fill_1
X_0661_ _0323_ vssd1 vssd1 vccd1 vccd1 _0054_ sky130_fd_sc_hd__buf_1
X_0730_ _0364_ wbs_adr_o[6] _0356_ vssd1 vssd1 vccd1 vccd1 _0365_ sky130_fd_sc_hd__mux2_2
X_0592_ _0252_ _0253_ _0281_ _0282_ vssd1 vssd1 vccd1 vccd1 _0283_ sky130_fd_sc_hd__or4_2
Xhold14 addr\[26\] vssd1 vssd1 vccd1 vccd1 net15 sky130_fd_sc_hd__dlygate4sd3_1
XFILLER_0_30_115 vssd1 vssd1 vccd1 vccd1 sky130_fd_sc_hd__decap_6
X_1075_ clknet_4_11_0_spi_sck _0130_ vssd1 vssd1 vccd1 vccd1 data_in\[14\] sky130_fd_sc_hd__dfxtp_2
X_0928_ command\[0\] _0231_ _0463_ vssd1 vssd1 vccd1 vccd1 _0464_ sky130_fd_sc_hd__mux2_2
X_0859_ wbs_dat_o[11] data_in\[11\] _0421_ vssd1 vssd1 vccd1 vccd1 _0431_ sky130_fd_sc_hd__mux2_2
XFILLER_0_1_45 vssd1 vssd1 vccd1 vccd1 sky130_fd_sc_hd__decap_4
XFILLER_0_16_68 vssd1 vssd1 vccd1 vccd1 sky130_fd_sc_hd__decap_4
XFILLER_0_16_24 vssd1 vssd1 vccd1 vccd1 sky130_fd_sc_hd__decap_4
X_1058_ clknet_4_7_0_spi_sck _0113_ vssd1 vssd1 vccd1 vccd1 wbs_adr_o[29] sky130_fd_sc_hd__dfxtp_2
X_0713_ shift_in\[0\] addr\[1\] _0348_ vssd1 vssd1 vccd1 vccd1 _0353_ sky130_fd_sc_hd__mux2_2
X_1127_ clknet_4_9_0_spi_sck _0179_ vssd1 vssd1 vccd1 vccd1 command\[0\] sky130_fd_sc_hd__dfxtp_2
XFILLER_0_12_137 vssd1 vssd1 vccd1 vccd1 sky130_fd_sc_hd__decap_3